REMARK  Name = data/mahkota_dewa_dn/results/docking/ligands/pdb/264-trihydroxy-4-methoxybenzophenone.pdb
REMARK  8 active torsions:
REMARK  status: ('A' for Active; 'I' for Inactive)
REMARK    1  A    between atoms: C1_1  and  O1_2
REMARK    2  A    between atoms: O1_2  and  C2_3
REMARK    3  A    between atoms: C8_10  and  C9_12
REMARK    4  A    between atoms: C12_15  and  O4_18
REMARK    5  A    between atoms: O4_18  and  C15_19
REMARK    6  A    between atoms: C15_19  and  C16_20
REMARK    7  A    between atoms: C22_26  and  O5_28
REMARK    8  A    between atoms: O5_28  and  C24_29
REMARK                            x       y       z     vdW  Elec       q    Type
REMARK                         _______ _______ _______ _____ _____    ______ ____
ROOT
ATOM      1  C2  UNL     1      -5.093  -0.291   1.557  0.00  0.00    +0.127 A 
ATOM      2  C3  UNL     1      -3.787   0.175   1.450  0.00  0.00    +0.092 A 
ATOM      3  C4  UNL     1      -3.007  -0.187   0.350  0.00  0.00    +0.139 A 
ATOM      4  C5  UNL     1      -3.511  -1.044  -0.639  0.00  0.00    +0.101 A 
ATOM      5  C6  UNL     1      -2.585  -1.436  -1.740  0.00  0.00    +0.174 C 
ATOM      6  O2  UNL     1      -2.932  -2.097  -2.713  0.00  0.00    -0.292 OA
ATOM      7  C7  UNL     1      -1.152  -1.011  -1.583  0.00  0.00    +0.129 C 
ATOM      8  C8  UNL     1      -1.148   0.374  -0.964  0.00  0.00    +0.211 C 
ATOM      9  O3  UNL     1      -1.738   0.337   0.343  0.00  0.00    -0.483 OA
ATOM     10  C22 UNL     1      -4.831  -1.519  -0.540  0.00  0.00    +0.138 A 
ATOM     11  C23 UNL     1      -5.607  -1.129   0.561  0.00  0.00    +0.092 A 
ENDROOT
BRANCH   8  12
ATOM     12  C9  UNL     1       0.268   0.906  -0.843  0.00  0.00    -0.007 A 
ATOM     13  C10 UNL     1       1.118   0.494   0.194  0.00  0.00    +0.011 A 
ATOM     14  C11 UNL     1       2.431   0.972   0.281  0.00  0.00    +0.046 A 
ATOM     15  C12 UNL     1       2.915   1.870  -0.668  0.00  0.00    +0.121 A 
ATOM     16  C13 UNL     1       2.080   2.270  -1.714  0.00  0.00    +0.046 A 
ATOM     17  C14 UNL     1       0.768   1.796  -1.803  0.00  0.00    +0.011 A 
BRANCH  15  18
ATOM     18  O4  UNL     1       4.174   2.402  -0.709  0.00  0.00    -0.487 OA
BRANCH  18  19
ATOM     19  C15 UNL     1       4.990   2.296   0.461  0.00  0.00    +0.264 C 
BRANCH  19  20
ATOM     20  C16 UNL     1       5.789   1.013   0.530  0.00  0.00    -0.010 A 
ATOM     21  C17 UNL     1       6.205   0.347  -0.632  0.00  0.00    +0.007 A 
ATOM     22  C18 UNL     1       6.965  -0.821  -0.548  0.00  0.00    +0.000 A 
ATOM     23  C19 UNL     1       7.327  -1.330   0.698  0.00  0.00    +0.000 A 
ATOM     24  C20 UNL     1       6.934  -0.670   1.860  0.00  0.00    +0.000 A 
ATOM     25  C21 UNL     1       6.174   0.498   1.777  0.00  0.00    +0.007 A 
ENDBRANCH  19  20
ENDBRANCH  18  19
ENDBRANCH  15  18
ENDBRANCH   8  12
BRANCH   1  27
ATOM     26  C1  UNL     1      -5.495   0.838   3.613  0.00  0.00    +0.277 C 
ATOM     27  O1  UNL     1      -5.967  -0.008   2.570  0.00  0.00    -0.495 OA
ENDBRANCH   1  27
BRANCH  10  28
ATOM     28  O5  UNL     1      -5.283  -2.352  -1.525  0.00  0.00    -0.494 OA
ATOM     29  C24 UNL     1      -6.621  -2.825  -1.454  0.00  0.00    +0.277 C 
ENDBRANCH  10  28
TORSDOF 6
