REMARK  Name = data/mahkota_dewa_dn/results/docking/ligands/pdb/Caffeic_acid.pdb
REMARK  5 active torsions:
REMARK  status: ('A' for Active; 'I' for Inactive)
REMARK    1  A    between atoms: C3_3  and  O4_13
REMARK    2  A    between atoms: C4_4  and  O3_12
REMARK    3  A    between atoms: C6_6  and  C7_7
REMARK    4  A    between atoms: C8_8  and  C9_9
REMARK    5  A    between atoms: C9_9  and  O2_11
REMARK                            x       y       z     vdW  Elec       q    Type
REMARK                         _______ _______ _______ _____ _____    ______ ____
ROOT
ATOM      1  C1  UNL     1       0.432   1.484   0.219  0.00  0.00    +0.012 A 
ATOM      2  C2  UNL     1       1.813   1.707   0.182  0.00  0.00    +0.050 A 
ATOM      3  C3  UNL     1       2.664   0.635  -0.050  0.00  0.00    +0.158 A 
ATOM      4  C4  UNL     1       2.146  -0.643  -0.237  0.00  0.00    +0.159 A 
ATOM      5  C5  UNL     1       0.777  -0.873  -0.201  0.00  0.00    +0.057 A 
ATOM      6  C6  UNL     1      -0.101   0.198   0.015  0.00  0.00    -0.021 A 
ENDROOT
BRANCH   6   7
ATOM      7  C7  UNL     1      -1.558   0.019   0.092  0.00  0.00    +0.015 C 
ATOM      8  C8  UNL     1      -2.245  -0.858  -0.657  0.00  0.00    +0.092 C 
BRANCH   8   9
ATOM      9  C9  UNL     1      -3.703  -1.023  -0.583  0.00  0.00    +0.330 C 
ATOM     10  O1  UNL     1      -4.339  -1.814  -1.256  0.00  0.00    -0.246 OA
BRANCH   9  11
ATOM     11  O2  UNL     1      -4.301  -0.216   0.305  0.00  0.00    -0.478 OA
ATOM     12  H6  UNL     1      -5.248  -0.454   0.231  0.00  0.00    +0.295 HD
ENDBRANCH   9  11
ENDBRANCH   8   9
ENDBRANCH   6   7
BRANCH   4  13
ATOM     13  O3  UNL     1       2.991  -1.694  -0.454  0.00  0.00    -0.503 OA
ATOM     14  H7  UNL     1       3.885  -1.298  -0.435  0.00  0.00    +0.292 HD
ENDBRANCH   4  13
BRANCH   3  15
ATOM     15  O4  UNL     1       4.022   0.786  -0.098  0.00  0.00    -0.503 OA
ATOM     16  H8  UNL     1       4.228   1.725   0.048  0.00  0.00    +0.292 HD
ENDBRANCH   3  15
TORSDOF 5
