REMARK  Name = data/mahkota_dewa_dn/results/docking/ligands/pdb/Gallic_acid.pdb
REMARK  5 active torsions:
REMARK  status: ('A' for Active; 'I' for Inactive)
REMARK    1  A    between atoms: C2_2  and  C7_10
REMARK    2  A    between atoms: C4_4  and  O3_9
REMARK    3  A    between atoms: C5_5  and  O2_8
REMARK    4  A    between atoms: C6_6  and  O1_7
REMARK    5  A    between atoms: C7_10  and  O5_12
REMARK                            x       y       z     vdW  Elec       q    Type
REMARK                         _______ _______ _______ _____ _____    ______ ____
ROOT
ATOM      1  C1  UNL     1       0.541   1.040  -0.700  0.00  0.00    +0.064 A 
ATOM      2  C2  UNL     1       1.030  -0.024   0.076  0.00  0.00    +0.066 A 
ATOM      3  C3  UNL     1       0.143  -0.937   0.666  0.00  0.00    +0.064 A 
ATOM      4  C4  UNL     1      -1.224  -0.772   0.473  0.00  0.00    +0.163 A 
ATOM      5  C5  UNL     1      -1.712   0.284  -0.297  0.00  0.00    +0.201 A 
ATOM      6  C6  UNL     1      -0.832   1.190  -0.883  0.00  0.00    +0.163 A 
ENDROOT
BRANCH   6   7
ATOM      7  O1  UNL     1      -1.324   2.219  -1.634  0.00  0.00    -0.503 OA
ATOM      8  H3  UNL     1      -0.590   2.756  -1.970  0.00  0.00    +0.292 HD
ENDBRANCH   6   7
BRANCH   5   9
ATOM      9  O2  UNL     1      -3.063   0.414  -0.465  0.00  0.00    -0.501 OA
ATOM     10  H4  UNL     1      -3.452  -0.329   0.035  0.00  0.00    +0.292 HD
ENDBRANCH   5   9
BRANCH   4  11
ATOM     11  O3  UNL     1      -2.136  -1.631   1.024  0.00  0.00    -0.503 OA
ATOM     12  H5  UNL     1      -1.657  -2.311   1.529  0.00  0.00    +0.292 HD
ENDBRANCH   4  11
BRANCH   2  13
ATOM     13  C7  UNL     1       2.498  -0.143   0.243  0.00  0.00    +0.337 C 
ATOM     14  O4  UNL     1       3.331   0.604  -0.235  0.00  0.00    -0.245 OA
BRANCH  13  15
ATOM     15  O5  UNL     1       2.853  -1.195   1.002  0.00  0.00    -0.477 OA
ATOM     16  H6  UNL     1       3.833  -1.147   1.024  0.00  0.00    +0.295 HD
ENDBRANCH  13  15
ENDBRANCH   2  13
TORSDOF 5
