REMARK  Name = data/mahkota_dewa_dn/results/docking/ligands/pdb/Kaempferol.pdb
REMARK  5 active torsions:
REMARK  status: ('A' for Active; 'I' for Inactive)
REMARK    1  A    between atoms: C3_3  and  O6_21
REMARK    2  A    between atoms: C6_6  and  C7_7
REMARK    3  A    between atoms: C8_8  and  O5_20
REMARK    4  A    between atoms: C11_12  and  O4_19
REMARK    5  A    between atoms: C13_14  and  O3_18
REMARK                            x       y       z     vdW  Elec       q    Type
REMARK                         _______ _______ _______ _____ _____    ______ ____
ROOT
ATOM      1  C7  UNL     1       0.468  -0.221   0.308  0.00  0.00    +0.181 A 
ATOM      2  C8  UNL     1      -0.016  -1.030   1.269  0.00  0.00    +0.208 A 
ATOM      3  C9  UNL     1      -1.482  -1.227   1.356  0.00  0.00    +0.238 A 
ATOM      4  O1  UNL     1      -1.962  -1.962   2.217  0.00  0.00    -0.283 OA
ATOM      5  C10 UNL     1      -2.319  -0.519   0.386  0.00  0.00    +0.109 A 
ATOM      6  C11 UNL     1      -3.712  -0.634   0.393  0.00  0.00    +0.135 A 
ATOM      7  C12 UNL     1      -4.471   0.058  -0.547  0.00  0.00    +0.091 A 
ATOM      8  C13 UNL     1      -3.832   0.860  -1.488  0.00  0.00    +0.124 A 
ATOM      9  C14 UNL     1      -2.445   0.982  -1.505  0.00  0.00    +0.092 A 
ATOM     10  C15 UNL     1      -1.689   0.286  -0.560  0.00  0.00    +0.147 A 
ATOM     11  O2  UNL     1      -0.327   0.439  -0.622  0.00  0.00    -0.451 OA
ENDROOT
BRANCH   1  17
ATOM     12  C1  UNL     1       2.466  -0.018  -1.170  0.00  0.00    +0.015 A 
ATOM     13  C2  UNL     1       3.822   0.249  -1.376  0.00  0.00    +0.046 A 
ATOM     14  C3  UNL     1       4.630   0.579  -0.296  0.00  0.00    +0.117 A 
ATOM     15  C4  UNL     1       4.104   0.651   0.989  0.00  0.00    +0.046 A 
ATOM     16  C5  UNL     1       2.746   0.385   1.193  0.00  0.00    +0.015 A 
ATOM     17  C6  UNL     1       1.911   0.039   0.119  0.00  0.00    +0.021 A 
BRANCH  14  18
ATOM     18  O6  UNL     1       5.947   0.831  -0.541  0.00  0.00    -0.507 OA
ATOM     19  H10 UNL     1       6.387   1.025   0.303  0.00  0.00    +0.292 HD
ENDBRANCH  14  18
ENDBRANCH   1  17
BRANCH   8  20
ATOM     20  O3  UNL     1      -4.612   1.521  -2.391  0.00  0.00    -0.507 OA
ATOM     21  H7  UNL     1      -4.047   2.044  -2.983  0.00  0.00    +0.292 HD
ENDBRANCH   8  20
BRANCH   6  22
ATOM     22  O4  UNL     1      -4.392  -1.407   1.293  0.00  0.00    -0.506 OA
ATOM     23  H8  UNL     1      -3.742  -1.839   1.891  0.00  0.00    +0.292 HD
ENDBRANCH   6  22
BRANCH   2  24
ATOM     24  O5  UNL     1       0.765  -1.714   2.182  0.00  0.00    -0.501 OA
ATOM     25  H9  UNL     1       0.136  -2.237   2.722  0.00  0.00    +0.292 HD
ENDBRANCH   2  24
TORSDOF 5
