REMARK  Name = data/mahkota_dewa_dn/results/docking/ligands/pdb/Lariciresinol.pdb
REMARK  10 active torsions:
REMARK  status: ('A' for Active; 'I' for Inactive)
REMARK    1  A    between atoms: C1_1  and  O1_2
REMARK    2  A    between atoms: O1_2  and  C2_3
REMARK    3  A    between atoms: C3_4  and  O6_25
REMARK    4  A    between atoms: C6_7  and  C8_9
REMARK    5  A    between atoms: C10_12  and  C13_16
REMARK    6  A    between atoms: C11_13  and  C12_14
REMARK    7  A    between atoms: C12_14  and  O3_15
REMARK    8  A    between atoms: C15_18  and  O5_23
REMARK    9  A    between atoms: C16_19  and  O4_22
REMARK   10  A    between atoms: O5_23  and  C19_24
REMARK                            x       y       z     vdW  Elec       q    Type
REMARK                         _______ _______ _______ _____ _____    ______ ____
ROOT
ATOM      1  C8  UNL     1      -0.795   0.082  -0.485  0.00  0.00    +0.154 C 
ATOM      2  O2  UNL     1      -0.812   1.243  -1.342  0.00  0.00    -0.371 OA
ATOM      3  C9  UNL     1       0.372   2.017  -1.090  0.00  0.00    +0.169 C 
ATOM      4  C10 UNL     1       1.275   1.203  -0.165  0.00  0.00    +0.053 C 
ATOM      5  C11 UNL     1       0.252   0.358   0.603  0.00  0.00    +0.057 C 
ENDROOT
BRANCH   1  10
ATOM      6  C2  UNL     1      -4.533   0.230   0.375  0.00  0.00    +0.162 A 
ATOM      7  C3  UNL     1      -4.699  -1.027   0.970  0.00  0.00    +0.158 A 
ATOM      8  C4  UNL     1      -3.633  -1.918   1.079  0.00  0.00    +0.049 A 
ATOM      9  C5  UNL     1      -2.376  -1.552   0.596  0.00  0.00    +0.010 A 
ATOM     10  C6  UNL     1      -2.176  -0.295   0.004  0.00  0.00    -0.015 A 
ATOM     11  C7  UNL     1      -3.267   0.587  -0.102  0.00  0.00    +0.055 A 
BRANCH   6  13
ATOM     12  C1  UNL     1      -5.544   2.240  -0.411  0.00  0.00    +0.277 C 
ATOM     13  O1  UNL     1      -5.646   1.027   0.320  0.00  0.00    -0.491 OA
ENDBRANCH   6  13
BRANCH   7  14
ATOM     14  O6  UNL     1      -5.933  -1.384   1.447  0.00  0.00    -0.503 OA
ATOM     15  H22 UNL     1      -5.891  -2.290   1.789  0.00  0.00    +0.292 HD
ENDBRANCH   7  14
ENDBRANCH   1  10
BRANCH   4  16
ATOM     16  C13 UNL     1       2.320   0.321  -0.841  0.00  0.00    -0.038 A 
ATOM     17  C14 UNL     1       3.419  -0.111  -0.069  0.00  0.00    +0.053 A 
ATOM     18  C15 UNL     1       4.412  -0.934  -0.612  0.00  0.00    +0.162 A 
ATOM     19  C16 UNL     1       4.295  -1.331  -1.949  0.00  0.00    +0.158 A 
ATOM     20  C17 UNL     1       3.214  -0.922  -2.727  0.00  0.00    +0.049 A 
ATOM     21  C18 UNL     1       2.230  -0.102  -2.174  0.00  0.00    +0.008 A 
BRANCH  19  22
ATOM     22  O4  UNL     1       5.258  -2.138  -2.495  0.00  0.00    -0.503 OA
ATOM     23  H18 UNL     1       5.041  -2.306  -3.424  0.00  0.00    +0.292 HD
ENDBRANCH  19  22
BRANCH  18  24
ATOM     24  O5  UNL     1       5.508  -1.397   0.066  0.00  0.00    -0.491 OA
ATOM     25  C19 UNL     1       5.654  -1.002   1.422  0.00  0.00    +0.277 C 
ENDBRANCH  18  24
ENDBRANCH   4  16
BRANCH   5  26
ATOM     26  C12 UNL     1      -0.300   1.126   1.811  0.00  0.00    +0.162 C 
BRANCH  26  27
ATOM     27  O3  UNL     1       0.765   1.400   2.719  0.00  0.00    -0.395 OA
ATOM     28  H14 UNL     1       0.367   1.823   3.500  0.00  0.00    +0.209 HD
ENDBRANCH  26  27
ENDBRANCH   5  26
TORSDOF 8
