REMARK  Name = data/mahkota_dewa_dn/results/docking/ligands/pdb/Luteolin.pdb
REMARK  5 active torsions:
REMARK  status: ('A' for Active; 'I' for Inactive)
REMARK    1  A    between atoms: C3_3  and  O6_21
REMARK    2  A    between atoms: C4_4  and  O5_20
REMARK    3  A    between atoms: C6_6  and  C7_7
REMARK    4  A    between atoms: C11_12  and  O4_19
REMARK    5  A    between atoms: C13_14  and  O3_18
REMARK                            x       y       z     vdW  Elec       q    Type
REMARK                         _______ _______ _______ _____ _____    ______ ____
ROOT
ATOM      1  C7  UNL     1       0.302  -0.505  -0.010  0.00  0.00    +0.139 A 
ATOM      2  C8  UNL     1      -0.268  -1.707   0.158  0.00  0.00    +0.098 A 
ATOM      3  C9  UNL     1      -1.734  -1.809   0.139  0.00  0.00    +0.197 A 
ATOM      4  O1  UNL     1      -2.306  -2.882   0.299  0.00  0.00    -0.287 OA
ATOM      5  C10 UNL     1      -2.488  -0.570  -0.076  0.00  0.00    +0.105 A 
ATOM      6  C11 UNL     1      -3.887  -0.557  -0.113  0.00  0.00    +0.135 A 
ATOM      7  C12 UNL     1      -4.572   0.638  -0.320  0.00  0.00    +0.091 A 
ATOM      8  C13 UNL     1      -3.848   1.815  -0.489  0.00  0.00    +0.124 A 
ATOM      9  C14 UNL     1      -2.456   1.814  -0.454  0.00  0.00    +0.092 A 
ATOM     10  C15 UNL     1      -1.775   0.615  -0.246  0.00  0.00    +0.146 A 
ATOM     11  O2  UNL     1      -0.404   0.670  -0.221  0.00  0.00    -0.454 OA
ENDROOT
BRANCH   1  17
ATOM     12  C1  UNL     1       2.579  -0.959   0.957  0.00  0.00    +0.015 A 
ATOM     13  C2  UNL     1       3.968  -0.785   0.955  0.00  0.00    +0.050 A 
ATOM     14  C3  UNL     1       4.548   0.018  -0.017  0.00  0.00    +0.158 A 
ATOM     15  C4  UNL     1       3.754   0.644  -0.973  0.00  0.00    +0.159 A 
ATOM     16  C5  UNL     1       2.375   0.479  -0.977  0.00  0.00    +0.060 A 
ATOM     17  C6  UNL     1       1.768  -0.336  -0.011  0.00  0.00    +0.021 A 
BRANCH  15  18
ATOM     18  O5  UNL     1       4.332   1.435  -1.926  0.00  0.00    -0.503 OA
ATOM     19  H9  UNL     1       5.288   1.404  -1.724  0.00  0.00    +0.292 HD
ENDBRANCH  15  18
BRANCH  14  20
ATOM     20  O6  UNL     1       5.897   0.227  -0.074  0.00  0.00    -0.503 OA
ATOM     21  H10 UNL     1       6.313  -0.265   0.655  0.00  0.00    +0.292 HD
ENDBRANCH  14  20
ENDBRANCH   1  17
BRANCH   8  22
ATOM     22  O3  UNL     1      -4.474   3.009  -0.694  0.00  0.00    -0.507 OA
ATOM     23  H7  UNL     1      -5.435   2.862  -0.701  0.00  0.00    +0.292 HD
ENDBRANCH   8  22
BRANCH   6  24
ATOM     24  O4  UNL     1      -4.647  -1.684   0.047  0.00  0.00    -0.506 OA
ATOM     25  H8  UNL     1      -4.039  -2.447   0.181  0.00  0.00    +0.292 HD
ENDBRANCH   6  24
TORSDOF 5
