REMARK  Name = data/mahkota_dewa_dn/results/docking/ligands/pdb/Naringeninchalcone.pdb
REMARK  7 active torsions:
REMARK  status: ('A' for Active; 'I' for Inactive)
REMARK    1  A    between atoms: C3_3  and  O5_20
REMARK    2  A    between atoms: C6_6  and  C7_7
REMARK    3  A    between atoms: C8_8  and  C9_9
REMARK    4  A    between atoms: C9_9  and  C10_11
REMARK    5  A    between atoms: C11_12  and  O4_19
REMARK    6  A    between atoms: C13_14  and  O3_18
REMARK    7  A    between atoms: C15_16  and  O2_17
REMARK                            x       y       z     vdW  Elec       q    Type
REMARK                         _______ _______ _______ _____ _____    ______ ____
ROOT
ATOM      1  C9  UNL     1      -1.235   0.937  -0.666  0.00  0.00    +0.193 C 
ATOM      2  O1  UNL     1      -1.402   1.996  -1.273  0.00  0.00    -0.287 OA
ENDROOT
BRANCH   1   3
ATOM      3  C10 UNL     1      -2.432   0.153  -0.264  0.00  0.00    +0.104 A 
ATOM      4  C11 UNL     1      -3.593   0.270  -1.052  0.00  0.00    +0.135 A 
ATOM      5  C12 UNL     1      -4.746  -0.459  -0.759  0.00  0.00    +0.091 A 
ATOM      6  C13 UNL     1      -4.752  -1.294   0.350  0.00  0.00    +0.124 A 
ATOM      7  C14 UNL     1      -3.634  -1.403   1.170  0.00  0.00    +0.091 A 
ATOM      8  C15 UNL     1      -2.479  -0.674   0.869  0.00  0.00    +0.135 A 
BRANCH   8   9
ATOM      9  O2  UNL     1      -1.414  -0.761   1.722  0.00  0.00    -0.506 OA
ATOM     10  H9  UNL     1      -1.662  -1.294   2.497  0.00  0.00    +0.292 HD
ENDBRANCH   8   9
BRANCH   6  11
ATOM     11  O3  UNL     1      -5.854  -2.025   0.682  0.00  0.00    -0.507 OA
ATOM     12  H10 UNL     1      -6.555  -1.847   0.032  0.00  0.00    +0.292 HD
ENDBRANCH   6  11
BRANCH   4  13
ATOM     13  O4  UNL     1      -3.675   1.095  -2.146  0.00  0.00    -0.506 OA
ATOM     14  H11 UNL     1      -2.897   1.698  -2.127  0.00  0.00    +0.292 HD
ENDBRANCH   4  13
ENDBRANCH   1   3
BRANCH   1  16
ATOM     15  C7  UNL     1       1.203   1.139  -0.679  0.00  0.00    +0.012 C 
ATOM     16  C8  UNL     1       0.124   0.383  -0.425  0.00  0.00    +0.052 C 
BRANCH  15  22
ATOM     17  C1  UNL     1       3.543   1.626  -0.050  0.00  0.00    +0.011 A 
ATOM     18  C2  UNL     1       4.877   1.252   0.135  0.00  0.00    +0.046 A 
ATOM     19  C3  UNL     1       5.259  -0.061  -0.115  0.00  0.00    +0.117 A 
ATOM     20  C4  UNL     1       4.332  -0.999  -0.550  0.00  0.00    +0.046 A 
ATOM     21  C5  UNL     1       2.999  -0.624  -0.735  0.00  0.00    +0.011 A 
ATOM     22  C6  UNL     1       2.587   0.691  -0.473  0.00  0.00    -0.025 A 
BRANCH  19  23
ATOM     23  O5  UNL     1       6.548  -0.471   0.051  0.00  0.00    -0.507 OA
ATOM     24  H12 UNL     1       7.079   0.287   0.346  0.00  0.00    +0.292 HD
ENDBRANCH  19  23
ENDBRANCH  15  22
ENDBRANCH   1  16
TORSDOF 7
