REMARK  Name = data/mahkota_dewa_dn/results/docking/ligands/pdb/Pinoresinol.pdb
REMARK  8 active torsions:
REMARK  status: ('A' for Active; 'I' for Inactive)
REMARK    1  A    between atoms: C1_1  and  O1_2
REMARK    2  A    between atoms: O1_2  and  C2_3
REMARK    3  A    between atoms: C4_5  and  C8_10
REMARK    4  A    between atoms: C7_8  and  O2_9
REMARK    5  A    between atoms: C13_17  and  C14_18
REMARK    6  A    between atoms: C16_20  and  O6_25
REMARK    7  A    between atoms: C17_21  and  O5_24
REMARK    8  A    between atoms: O6_25  and  C20_26
REMARK                            x       y       z     vdW  Elec       q    Type
REMARK                         _______ _______ _______ _____ _____    ______ ____
ROOT
ATOM      1  C8  UNL     1       1.507  -0.338   0.847  0.00  0.00    +0.154 C 
ATOM      2  O3  UNL     1       1.531   1.117   1.036  0.00  0.00    -0.371 OA
ATOM      3  C9  UNL     1       0.374   1.693   0.358  0.00  0.00    +0.167 C 
ATOM      4  C10 UNL     1      -0.512   0.510   0.123  0.00  0.00    +0.056 C 
ATOM      5  C11 UNL     1       0.512  -0.510  -0.269  0.00  0.00    +0.056 C 
ATOM      6  C12 UNL     1      -0.374  -1.693  -0.503  0.00  0.00    +0.167 C 
ATOM      7  O4  UNL     1      -1.531  -1.117  -1.182  0.00  0.00    -0.371 OA
ATOM      8  C13 UNL     1      -1.507   0.338  -0.993  0.00  0.00    +0.154 C 
ENDROOT
BRANCH   1  11
ATOM      9  C2  UNL     1       5.161  -0.607  -0.290  0.00  0.00    +0.162 A 
ATOM     10  C3  UNL     1       3.910  -0.073   0.040  0.00  0.00    +0.055 A 
ATOM     11  C4  UNL     1       2.870  -0.894   0.510  0.00  0.00    -0.015 A 
ATOM     12  C5  UNL     1       3.102  -2.272   0.641  0.00  0.00    +0.010 A 
ATOM     13  C6  UNL     1       4.343  -2.818   0.311  0.00  0.00    +0.049 A 
ATOM     14  C7  UNL     1       5.361  -1.987  -0.153  0.00  0.00    +0.158 A 
BRANCH   9  16
ATOM     15  C1  UNL     1       6.092   1.530  -0.786  0.00  0.00    +0.277 C 
ATOM     16  O1  UNL     1       6.227   0.117  -0.756  0.00  0.00    -0.491 OA
ENDBRANCH   9  16
BRANCH  14  17
ATOM     17  O2  UNL     1       6.579  -2.522  -0.478  0.00  0.00    -0.503 OA
ATOM     18  H7  UNL     1       6.562  -3.476  -0.310  0.00  0.00    +0.292 HD
ENDBRANCH  14  17
ENDBRANCH   1  11
BRANCH   8  19
ATOM     19  C14 UNL     1      -2.870   0.894  -0.656  0.00  0.00    -0.015 A 
ATOM     20  C15 UNL     1      -3.910   0.073  -0.185  0.00  0.00    +0.055 A 
ATOM     21  C16 UNL     1      -5.161   0.607   0.145  0.00  0.00    +0.162 A 
ATOM     22  C17 UNL     1      -5.361   1.987   0.007  0.00  0.00    +0.158 A 
ATOM     23  C18 UNL     1      -4.343   2.818  -0.457  0.00  0.00    +0.049 A 
ATOM     24  C19 UNL     1      -3.102   2.272  -0.787  0.00  0.00    +0.010 A 
BRANCH  22  25
ATOM     25  O5  UNL     1      -6.579   2.522   0.333  0.00  0.00    -0.503 OA
ATOM     26  H19 UNL     1      -6.562   3.476   0.164  0.00  0.00    +0.292 HD
ENDBRANCH  22  25
BRANCH  21  27
ATOM     27  O6  UNL     1      -6.227  -0.116   0.610  0.00  0.00    -0.491 OA
ATOM     28  C20 UNL     1      -6.093  -1.530   0.640  0.00  0.00    +0.277 C 
ENDBRANCH  21  27
ENDBRANCH   8  19
TORSDOF 6
