REMARK  Name = data/mahkota_dewa_dn/results/docking/ligands/pdb/Pioglitazone.pdb
REMARK  8 active torsions:
REMARK  status: ('A' for Active; 'I' for Inactive)
REMARK    1  A    between atoms: C1_1  and  C2_2
REMARK    2  A    between atoms: C2_2  and  C3_3
REMARK    3  A    between atoms: C6_6  and  C9_9
REMARK    4  A    between atoms: C9_9  and  C10_10
REMARK    5  A    between atoms: C10_10  and  O1_11
REMARK    6  A    between atoms: O1_11  and  C11_12
REMARK    7  A    between atoms: C14_15  and  C17_18
REMARK    8  A    between atoms: C17_18  and  C18_19
REMARK                            x       y       z     vdW  Elec       q    Type
REMARK                         _______ _______ _______ _____ _____    ______ ____
ROOT
ATOM      1  C11 UNL     1       0.924  -0.200  -0.383  0.00  0.00    +0.121 A 
ATOM      2  C12 UNL     1       1.303  -1.111   0.606  0.00  0.00    +0.046 A 
ATOM      3  C13 UNL     1       2.410  -0.863   1.422  0.00  0.00    +0.007 A 
ATOM      4  C14 UNL     1       3.156   0.310   1.263  0.00  0.00    -0.046 A 
ATOM      5  C15 UNL     1       2.773   1.222   0.273  0.00  0.00    +0.007 A 
ATOM      6  C16 UNL     1       1.664   0.969  -0.544  0.00  0.00    +0.046 A 
ENDROOT
BRANCH   1   7
ATOM      7  O1  UNL     1      -0.177  -0.573  -1.100  0.00  0.00    -0.492 OA
BRANCH   7   8
ATOM      8  C10 UNL     1      -0.628   0.262  -2.169  0.00  0.00    +0.233 C 
BRANCH   8   9
ATOM      9  C9  UNL     1      -1.534   1.396  -1.677  0.00  0.00    +0.076 C 
BRANCH   9  13
ATOM     10  C3  UNL     1      -5.444  -0.016  -0.463  0.00  0.00    -0.048 A 
ATOM     11  C4  UNL     1      -5.247   0.518  -1.742  0.00  0.00    +0.004 A 
ATOM     12  C5  UNL     1      -3.987   0.978  -2.134  0.00  0.00    +0.004 A 
ATOM     13  C6  UNL     1      -2.901   0.910  -1.253  0.00  0.00    -0.044 A 
ATOM     14  C7  UNL     1      -3.096   0.365   0.022  0.00  0.00    +0.004 A 
ATOM     15  C8  UNL     1      -4.355  -0.095   0.413  0.00  0.00    +0.004 A 
BRANCH  10  17
ATOM     16  C1  UNL     1      -6.975  -2.001  -0.392  0.00  0.00    +0.009 C 
ATOM     17  C2  UNL     1      -6.798  -0.530  -0.048  0.00  0.00    +0.032 C 
ENDBRANCH  10  17
ENDBRANCH   9  13
ENDBRANCH   8   9
ENDBRANCH   7   8
ENDBRANCH   1   7
BRANCH   4  18
ATOM     18  C17 UNL     1       4.365   0.569   2.133  0.00  0.00    +0.059 C 
BRANCH  18  19
ATOM     19  C18 UNL     1       5.628  -0.089   1.574  0.00  0.00    +0.146 C 
ATOM     20  C19 UNL     1       6.411   0.834   0.656  0.00  0.00    +0.234 C 
ATOM     21  O2  UNL     1       5.937   1.552  -0.214  0.00  0.00    -0.274 OA
ATOM     22  N1  UNL     1       7.749   0.784   0.911  0.00  0.00    -0.246 N 
ATOM     23  C20 UNL     1       8.146   0.282   2.101  0.00  0.00    +0.279 C 
ATOM     24  O3  UNL     1       9.262   0.390   2.579  0.00  0.00    -0.263 OA
ATOM     25  S1  UNL     1       6.811  -0.492   2.912  0.00  0.00    -0.054 S 
ATOM     26  H21 UNL     1       8.378   1.387   0.403  0.00  0.00    +0.158 HD
ENDBRANCH  18  19
ENDBRANCH   4  18
TORSDOF 7
