REMARK  Name = data/mahkota_dewa_dn/results/docking/ligands/pdb/Sildenafil.pdb
REMARK  12 active torsions:
REMARK  status: ('A' for Active; 'I' for Inactive)
REMARK    1  A    between atoms: C1_1  and  C2_2
REMARK    2  A    between atoms: C2_2  and  C3_3
REMARK    3  A    between atoms: C3_3  and  C4_4
REMARK    4  A    between atoms: N2_6  and  C5_7
REMARK    5  A    between atoms: C8_11  and  O4_33
REMARK    6  A    between atoms: C9_13  and  C10_14
REMARK    7  A    between atoms: C12_16  and  S1_23
REMARK    8  A    between atoms: C15_19  and  O1_20
REMARK    9  A    between atoms: O1_20  and  C16_21
REMARK   10  A    between atoms: C16_21  and  C17_22
REMARK   11  A    between atoms: S1_23  and  N5_26
REMARK   12  A    between atoms: N6_29  and  C20_30
REMARK                            x       y       z     vdW  Elec       q    Type
REMARK                         _______ _______ _______ _____ _____    ______ ____
ROOT
ATOM      1  C10 UNL     1      -0.070  -0.851   0.204  0.00  0.00    +0.046 A 
ATOM      2  C11 UNL     1      -1.190  -1.003   1.040  0.00  0.00    +0.042 A 
ATOM      3  C12 UNL     1      -2.198  -1.916   0.724  0.00  0.00    +0.106 A 
ATOM      4  C13 UNL     1      -2.078  -2.736  -0.397  0.00  0.00    +0.032 A 
ATOM      5  C14 UNL     1      -0.973  -2.598  -1.239  0.00  0.00    +0.048 A 
ATOM      6  C15 UNL     1       0.020  -1.648  -0.960  0.00  0.00    +0.130 A 
ENDROOT
BRANCH   1  16
ATOM      7  C4  UNL     1       4.378   0.510   1.281  0.00  0.00    +0.089 A 
ATOM      8  N1  UNL     1       4.378  -0.826   1.189  0.00  0.00    -0.174 NA
ATOM      9  N2  UNL     1       3.086  -1.137   0.936  0.00  0.00    -0.263 N 
ATOM     10  C5  UNL     1       2.729  -2.535   0.884  0.00  0.00    +0.173 C 
ATOM     11  C6  UNL     1       2.266  -0.044   0.817  0.00  0.00    +0.113 A 
ATOM     12  C7  UNL     1       3.087   1.046   1.074  0.00  0.00    +0.119 A 
ATOM     13  N3  UNL     1       2.649   2.324   1.097  0.00  0.00    -0.192 NA
ATOM     14  C8  UNL     1       1.342   2.417   0.863  0.00  0.00    +0.317 A 
ATOM     15  N4  UNL     1       0.461   1.448   0.602  0.00  0.00    -0.193 NA
ATOM     16  C9  UNL     1       0.920   0.172   0.538  0.00  0.00    +0.107 A 
BRANCH  14  17
ATOM     17  O4  UNL     1       0.856   3.687   0.908  0.00  0.00    -0.478 OA
ATOM     18  H30 UNL     1       1.681   4.160   1.100  0.00  0.00    +0.295 HD
ENDBRANCH  14  17
BRANCH   7  19
ATOM     19  C3  UNL     1       5.638   1.252   1.574  0.00  0.00    +0.059 C 
BRANCH  19  21
ATOM     20  C1  UNL     1       7.632   2.457   0.611  0.00  0.00    +0.004 C 
ATOM     21  C2  UNL     1       6.350   1.701   0.297  0.00  0.00    +0.003 C 
ENDBRANCH  19  21
ENDBRANCH   7  19
ENDBRANCH   1  16
BRANCH   3  22
ATOM     22  S1  UNL     1      -3.608  -2.074   1.800  0.00  0.00    +0.061 S 
ATOM     23  O2  UNL     1      -4.196  -3.373   1.548  0.00  0.00    -0.153 OA
ATOM     24  O3  UNL     1      -3.177  -1.696   3.129  0.00  0.00    -0.153 OA
BRANCH  22  25
ATOM     25  N5  UNL     1      -4.678  -0.896   1.229  0.00  0.00    -0.174 NA
ATOM     26  C18 UNL     1      -5.371  -1.178  -0.059  0.00  0.00    +0.125 C 
ATOM     27  C19 UNL     1      -6.151   0.059  -0.539  0.00  0.00    +0.101 C 
ATOM     28  N6  UNL     1      -5.271   1.208  -0.833  0.00  0.00    -0.303 NA
ATOM     29  C20 UNL     1      -6.037   2.452  -0.846  0.00  0.00    +0.105 C 
ATOM     30  C21 UNL     1      -4.125   1.278   0.100  0.00  0.00    +0.101 C 
ATOM     31  C22 UNL     1      -4.329   0.539   1.437  0.00  0.00    +0.125 C 
ENDBRANCH  22  25
ENDBRANCH   3  22
BRANCH   6  32
ATOM     32  O1  UNL     1       1.123  -1.441  -1.749  0.00  0.00    -0.492 OA
BRANCH  32  33
ATOM     33  C16 UNL     1       1.114  -1.995  -3.063  0.00  0.00    +0.226 C 
ATOM     34  C17 UNL     1       2.338  -1.471  -3.794  0.00  0.00    +0.048 C 
ENDBRANCH  32  33
ENDBRANCH   6  32
TORSDOF 8
