REMARK  Name = data/mahkota_dewa_dn/results/docking/ligands/pdb/Swertianin.pdb
REMARK  11 active torsions:
REMARK  status: ('A' for Active; 'I' for Inactive)
REMARK    1  A    between atoms: C1_1  and  O1_2
REMARK    2  A    between atoms: O1_2  and  C2_3
REMARK    3  A    between atoms: C6_7  and  C9_11
REMARK    4  A    between atoms: C7_8  and  O2_9
REMARK    5  A    between atoms: O2_9  and  C8_10
REMARK    6  A    between atoms: C13_16  and  O8_27
REMARK    7  A    between atoms: C14_17  and  O7_25
REMARK    8  A    between atoms: C15_18  and  O6_24
REMARK    9  A    between atoms: C16_19  and  O5_22
REMARK   10  A    between atoms: O5_22  and  C18_23
REMARK   11  A    between atoms: O7_25  and  C19_26
REMARK                            x       y       z     vdW  Elec       q    Type
REMARK                         _______ _______ _______ _____ _____    ______ ____
ROOT
ATOM      1  C9  UNL     1      -0.595   0.857  -0.024  0.00  0.00    +0.143 A 
ATOM      2  C10 UNL     1      -0.418   1.700  -1.047  0.00  0.00    +0.098 A 
ATOM      3  C11 UNL     1       0.927   1.864  -1.624  0.00  0.00    +0.197 A 
ATOM      4  O3  UNL     1       1.078   2.650  -2.549  0.00  0.00    -0.287 OA
ATOM      5  C12 UNL     1       2.010   1.046  -1.026  0.00  0.00    +0.113 A 
ATOM      6  C13 UNL     1       3.338   1.104  -1.471  0.00  0.00    +0.177 A 
ATOM      7  C14 UNL     1       4.354   0.336  -0.871  0.00  0.00    +0.208 A 
ATOM      8  C15 UNL     1       4.010  -0.508   0.184  0.00  0.00    +0.209 A 
ATOM      9  C16 UNL     1       2.676  -0.603   0.620  0.00  0.00    +0.209 A 
ATOM     10  C17 UNL     1       1.683   0.193   0.034  0.00  0.00    +0.188 A 
ATOM     11  O4  UNL     1       0.416   0.122   0.559  0.00  0.00    -0.451 OA
ENDROOT
BRANCH   1  16
ATOM     12  C2  UNL     1      -4.316   0.169   0.521  0.00  0.00    +0.162 A 
ATOM     13  C3  UNL     1      -4.393   0.344   1.905  0.00  0.00    +0.049 A 
ATOM     14  C4  UNL     1      -3.250   0.670   2.639  0.00  0.00    +0.004 A 
ATOM     15  C5  UNL     1      -2.023   0.832   1.996  0.00  0.00    +0.015 A 
ATOM     16  C6  UNL     1      -1.915   0.667   0.607  0.00  0.00    +0.063 A 
ATOM     17  C7  UNL     1      -3.067   0.304  -0.117  0.00  0.00    +0.172 A 
BRANCH  12  19
ATOM     18  C1  UNL     1      -6.678  -0.074   0.293  0.00  0.00    +0.277 C 
ATOM     19  O1  UNL     1      -5.381  -0.142  -0.284  0.00  0.00    -0.491 OA
ENDBRANCH  12  19
BRANCH  17  20
ATOM     20  O2  UNL     1      -2.975   0.140  -1.482  0.00  0.00    -0.491 OA
ATOM     21  C8  UNL     1      -2.892  -1.246  -1.812  0.00  0.00    +0.277 C 
ENDBRANCH  17  20
ENDBRANCH   1  16
BRANCH   9  22
ATOM     22  O5  UNL     1       2.476  -1.470   1.672  0.00  0.00    -0.488 OA
ATOM     23  C18 UNL     1       1.354  -2.340   1.514  0.00  0.00    +0.277 C 
ENDBRANCH   9  22
BRANCH   8  24
ATOM     24  O6  UNL     1       4.940  -1.279   0.833  0.00  0.00    -0.501 OA
ATOM     25  H14 UNL     1       4.459  -1.724   1.558  0.00  0.00    +0.292 HD
ENDBRANCH   8  24
BRANCH   7  26
ATOM     26  O7  UNL     1       5.591   0.538  -1.432  0.00  0.00    -0.488 OA
ATOM     27  C19 UNL     1       6.694  -0.187  -0.905  0.00  0.00    +0.277 C 
ENDBRANCH   7  26
BRANCH   6  28
ATOM     28  O8  UNL     1       3.698   1.925  -2.511  0.00  0.00    -0.503 OA
ATOM     29  H18 UNL     1       4.660   1.808  -2.633  0.00  0.00    +0.292 HD
ENDBRANCH   6  28
TORSDOF 7
