MODEL 1
REMARK VINA RESULT:    -7.944      0.000      0.000
REMARK INTER + INTRA:         -12.165
REMARK INTER:                 -11.195
REMARK INTRA:                  -0.970
REMARK UNBOUND:                -0.970
REMARK  Name = data/mahkota_dewa_dn/results/docking/ligands/pdb/Matairesinol.pdb
REMARK  10 active torsions:
REMARK  status: ('A' for Active; 'I' for Inactive)
REMARK    1  A    between atoms: C1_1  and  O1_2
REMARK    2  A    between atoms: O1_2  and  C2_3
REMARK    3  A    between atoms: C3_4  and  O6_26
REMARK    4  A    between atoms: C6_7  and  C8_9
REMARK    5  A    between atoms: C8_9  and  C9_10
REMARK    6  A    between atoms: C12_15  and  C13_16
REMARK    7  A    between atoms: C13_16  and  C14_17
REMARK    8  A    between atoms: C16_19  and  O5_24
REMARK    9  A    between atoms: C17_20  and  O4_23
REMARK   10  A    between atoms: O5_24  and  C20_25
REMARK                            x       y       z     vdW  Elec       q    Type
REMARK                         _______ _______ _______ _____ _____    ______ ____
ROOT
ATOM      1  C9  UNL     1     -18.316  11.668  36.792  0.00  0.00    +0.045 C 
ATOM      2  C10 UNL     1     -17.105  11.058  36.113  0.00  0.00    +0.236 C 
ATOM      3  O2  UNL     1     -17.530   9.766  35.682  0.00  0.00    -0.464 OA
ATOM      4  C11 UNL     1     -18.889   9.758  35.548  0.00  0.00    +0.311 C 
ATOM      5  O3  UNL     1     -19.523   8.802  35.134  0.00  0.00    -0.251 OA
ATOM      6  C12 UNL     1     -19.463  11.095  35.953  0.00  0.00    +0.109 C 
ENDROOT
BRANCH   1   7
ATOM      7  C8  UNL     1     -18.449  11.223  38.266  0.00  0.00    +0.043 C 
BRANCH   7  12
ATOM      8  C2  UNL     1     -18.597  14.529  40.177  0.00  0.00    +0.162 A 
ATOM      9  C3  UNL     1     -17.538  14.352  41.077  0.00  0.00    +0.158 A 
ATOM     10  C4  UNL     1     -16.773  13.186  41.070  0.00  0.00    +0.049 A 
ATOM     11  C5  UNL     1     -17.066  12.175  40.155  0.00  0.00    +0.007 A 
ATOM     12  C6  UNL     1     -18.123  12.324  39.249  0.00  0.00    -0.043 A 
ATOM     13  C7  UNL     1     -18.880  13.509  39.264  0.00  0.00    +0.053 A 
BRANCH   8  15
ATOM     14  C1  UNL     1     -20.487  15.836  39.532  0.00  0.00    +0.277 C 
ATOM     15  O1  UNL     1     -19.282  15.713  40.273  0.00  0.00    -0.491 OA
ENDBRANCH   8  15
BRANCH   9  16
ATOM     16  O6  UNL     1     -17.252  15.345  41.978  0.00  0.00    -0.503 OA
ATOM     17  H22 UNL     1     -17.584  15.088  42.851  0.00  0.00    +0.292 HD
ENDBRANCH   9  16
ENDBRANCH   7  12
ENDBRANCH   1   7
BRANCH   6  18
ATOM     18  C13 UNL     1     -19.760  11.932  34.699  0.00  0.00    +0.050 C 
BRANCH  18  19
ATOM     19  C14 UNL     1     -21.161  11.699  34.176  0.00  0.00    -0.043 A 
ATOM     20  C15 UNL     1     -22.223  11.463  35.065  0.00  0.00    +0.053 A 
ATOM     21  C16 UNL     1     -23.526  11.270  34.593  0.00  0.00    +0.162 A 
ATOM     22  C17 UNL     1     -23.752  11.295  33.212  0.00  0.00    +0.158 A 
ATOM     23  C18 UNL     1     -22.708  11.528  32.316  0.00  0.00    +0.049 A 
ATOM     24  C19 UNL     1     -21.416  11.735  32.800  0.00  0.00    +0.007 A 
BRANCH  22  25
ATOM     25  O4  UNL     1     -25.021  11.094  32.737  0.00  0.00    -0.503 OA
ATOM     26  H18 UNL     1     -25.475  10.452  33.304  0.00  0.00    +0.292 HD
ENDBRANCH  22  25
BRANCH  21  27
ATOM     27  O5  UNL     1     -24.618  11.039  35.387  0.00  0.00    -0.491 OA
ATOM     28  C20 UNL     1     -24.473  10.069  36.416  0.00  0.00    +0.277 C 
ENDBRANCH  21  27
ENDBRANCH  18  19
ENDBRANCH   6  18
TORSDOF 8
ENDMDL
MODEL 2
REMARK VINA RESULT:    -7.886      2.380      6.798
REMARK INTER + INTRA:         -12.083
REMARK INTER:                 -10.688
REMARK INTRA:                  -1.395
REMARK UNBOUND:                -0.970
REMARK  Name = data/mahkota_dewa_dn/results/docking/ligands/pdb/Matairesinol.pdb
REMARK  10 active torsions:
REMARK  status: ('A' for Active; 'I' for Inactive)
REMARK    1  A    between atoms: C1_1  and  O1_2
REMARK    2  A    between atoms: O1_2  and  C2_3
REMARK    3  A    between atoms: C3_4  and  O6_26
REMARK    4  A    between atoms: C6_7  and  C8_9
REMARK    5  A    between atoms: C8_9  and  C9_10
REMARK    6  A    between atoms: C12_15  and  C13_16
REMARK    7  A    between atoms: C13_16  and  C14_17
REMARK    8  A    between atoms: C16_19  and  O5_24
REMARK    9  A    between atoms: C17_20  and  O4_23
REMARK   10  A    between atoms: O5_24  and  C20_25
REMARK                            x       y       z     vdW  Elec       q    Type
REMARK                         _______ _______ _______ _____ _____    ______ ____
ROOT
ATOM      1  C9  UNL     1     -19.395  10.344  39.502  0.00  0.00    +0.045 C 
ATOM      2  C10 UNL     1     -18.472   9.225  39.943  0.00  0.00    +0.236 C 
ATOM      3  O2  UNL     1     -18.430   8.320  38.841  0.00  0.00    -0.464 OA
ATOM      4  C11 UNL     1     -18.752   8.988  37.694  0.00  0.00    +0.311 C 
ATOM      5  O3  UNL     1     -18.738   8.477  36.587  0.00  0.00    -0.251 OA
ATOM      6  C12 UNL     1     -19.089  10.427  38.003  0.00  0.00    +0.109 C 
ENDROOT
BRANCH   1   7
ATOM      7  C8  UNL     1     -20.885  10.001  39.732  0.00  0.00    +0.043 C 
BRANCH   7  12
ATOM      8  C2  UNL     1     -23.463  10.496  36.954  0.00  0.00    +0.162 A 
ATOM      9  C3  UNL     1     -23.526  11.895  36.910  0.00  0.00    +0.158 A 
ATOM     10  C4  UNL     1     -22.744  12.679  37.758  0.00  0.00    +0.049 A 
ATOM     11  C5  UNL     1     -21.885  12.064  38.669  0.00  0.00    +0.007 A 
ATOM     12  C6  UNL     1     -21.807  10.667  38.737  0.00  0.00    -0.043 A 
ATOM     13  C7  UNL     1     -22.596   9.891  37.870  0.00  0.00    +0.053 A 
BRANCH   8  15
ATOM     14  C1  UNL     1     -24.046   8.434  35.902  0.00  0.00    +0.277 C 
ATOM     15  O1  UNL     1     -24.275   9.825  36.078  0.00  0.00    -0.491 OA
ENDBRANCH   8  15
BRANCH   9  16
ATOM     16  O6  UNL     1     -24.372  12.498  36.018  0.00  0.00    -0.503 OA
ATOM     17  H22 UNL     1     -25.208  12.705  36.461  0.00  0.00    +0.292 HD
ENDBRANCH   9  16
ENDBRANCH   7  12
ENDBRANCH   1   7
BRANCH   6  18
ATOM     18  C13 UNL     1     -17.878  11.320  37.691  0.00  0.00    +0.050 C 
BRANCH  18  19
ATOM     19  C14 UNL     1     -18.065  12.732  38.199  0.00  0.00    -0.043 A 
ATOM     20  C15 UNL     1     -17.560  13.110  39.455  0.00  0.00    +0.053 A 
ATOM     21  C16 UNL     1     -17.707  14.420  39.924  0.00  0.00    +0.162 A 
ATOM     22  C17 UNL     1     -18.386  15.349  39.127  0.00  0.00    +0.158 A 
ATOM     23  C18 UNL     1     -18.893  14.990  37.877  0.00  0.00    +0.049 A 
ATOM     24  C19 UNL     1     -18.726  13.685  37.413  0.00  0.00    +0.007 A 
BRANCH  22  25
ATOM     25  O4  UNL     1     -18.547  16.631  39.581  0.00  0.00    -0.503 OA
ATOM     26  H18 UNL     1     -17.685  16.983  39.852  0.00  0.00    +0.292 HD
ENDBRANCH  22  25
BRANCH  21  27
ATOM     27  O5  UNL     1     -17.242  14.874  41.130  0.00  0.00    -0.491 OA
ATOM     28  C20 UNL     1     -16.453  13.974  41.896  0.00  0.00    +0.277 C 
ENDBRANCH  21  27
ENDBRANCH  18  19
ENDBRANCH   6  18
TORSDOF 8
ENDMDL
MODEL 3
REMARK VINA RESULT:    -7.772      1.147      2.161
REMARK INTER + INTRA:         -11.923
REMARK INTER:                 -10.839
REMARK INTRA:                  -1.083
REMARK UNBOUND:                -0.970
REMARK  Name = data/mahkota_dewa_dn/results/docking/ligands/pdb/Matairesinol.pdb
REMARK  10 active torsions:
REMARK  status: ('A' for Active; 'I' for Inactive)
REMARK    1  A    between atoms: C1_1  and  O1_2
REMARK    2  A    between atoms: O1_2  and  C2_3
REMARK    3  A    between atoms: C3_4  and  O6_26
REMARK    4  A    between atoms: C6_7  and  C8_9
REMARK    5  A    between atoms: C8_9  and  C9_10
REMARK    6  A    between atoms: C12_15  and  C13_16
REMARK    7  A    between atoms: C13_16  and  C14_17
REMARK    8  A    between atoms: C16_19  and  O5_24
REMARK    9  A    between atoms: C17_20  and  O4_23
REMARK   10  A    between atoms: O5_24  and  C20_25
REMARK                            x       y       z     vdW  Elec       q    Type
REMARK                         _______ _______ _______ _____ _____    ______ ____
ROOT
ATOM      1  C9  UNL     1     -17.566  11.829  37.130  0.00  0.00    +0.045 C 
ATOM      2  C10 UNL     1     -16.824  11.329  35.906  0.00  0.00    +0.236 C 
ATOM      3  O2  UNL     1     -17.316  10.008  35.684  0.00  0.00    -0.464 OA
ATOM      4  C11 UNL     1     -18.553   9.885  36.251  0.00  0.00    +0.311 C 
ATOM      5  O3  UNL     1     -19.240   8.882  36.165  0.00  0.00    -0.251 OA
ATOM      6  C12 UNL     1     -18.937  11.166  36.954  0.00  0.00    +0.109 C 
ENDROOT
BRANCH   1   7
ATOM      7  C8  UNL     1     -16.906  11.364  38.448  0.00  0.00    +0.043 C 
BRANCH   7  12
ATOM      8  C2  UNL     1     -17.709  14.582  40.348  0.00  0.00    +0.162 A 
ATOM      9  C3  UNL     1     -16.972  14.377  41.522  0.00  0.00    +0.158 A 
ATOM     10  C4  UNL     1     -16.215  13.220  41.704  0.00  0.00    +0.049 A 
ATOM     11  C5  UNL     1     -16.190  12.246  40.705  0.00  0.00    +0.007 A 
ATOM     12  C6  UNL     1     -16.922  12.425  39.525  0.00  0.00    -0.043 A 
ATOM     13  C7  UNL     1     -17.675  13.600  39.353  0.00  0.00    +0.053 A 
BRANCH   8  15
ATOM     14  C1  UNL     1     -19.704  15.706  39.676  0.00  0.00    +0.277 C 
ATOM     15  O1  UNL     1     -18.417  15.753  40.275  0.00  0.00    -0.491 OA
ENDBRANCH   8  15
BRANCH   9  16
ATOM     16  O6  UNL     1     -16.998  15.332  42.504  0.00  0.00    -0.503 OA
ATOM     17  H22 UNL     1     -16.735  14.931  43.345  0.00  0.00    +0.292 HD
ENDBRANCH   9  16
ENDBRANCH   7  12
ENDBRANCH   1   7
BRANCH   6  18
ATOM     18  C13 UNL     1     -19.883  11.982  36.061  0.00  0.00    +0.050 C 
BRANCH  18  19
ATOM     19  C14 UNL     1     -21.337  11.649  36.315  0.00  0.00    -0.043 A 
ATOM     20  C15 UNL     1     -22.277  11.718  35.273  0.00  0.00    +0.053 A 
ATOM     21  C16 UNL     1     -23.618  11.389  35.492  0.00  0.00    +0.162 A 
ATOM     22  C17 UNL     1     -24.017  11.007  36.779  0.00  0.00    +0.158 A 
ATOM     23  C18 UNL     1     -23.096  10.933  37.824  0.00  0.00    +0.049 A 
ATOM     24  C19 UNL     1     -21.758  11.248  37.590  0.00  0.00    +0.007 A 
BRANCH  22  25
ATOM     25  O4  UNL     1     -25.331  10.695  37.008  0.00  0.00    -0.503 OA
ATOM     26  H18 UNL     1     -25.386   9.795  37.364  0.00  0.00    +0.292 HD
ENDBRANCH  22  25
BRANCH  21  27
ATOM     27  O5  UNL     1     -24.598  11.424  34.534  0.00  0.00    -0.491 OA
ATOM     28  C20 UNL     1     -24.198  11.784  33.218  0.00  0.00    +0.277 C 
ENDBRANCH  21  27
ENDBRANCH  18  19
ENDBRANCH   6  18
TORSDOF 8
ENDMDL
MODEL 4
REMARK VINA RESULT:    -7.763      2.971      5.756
REMARK INTER + INTRA:         -11.911
REMARK INTER:                 -10.772
REMARK INTRA:                  -1.139
REMARK UNBOUND:                -0.970
REMARK  Name = data/mahkota_dewa_dn/results/docking/ligands/pdb/Matairesinol.pdb
REMARK  10 active torsions:
REMARK  status: ('A' for Active; 'I' for Inactive)
REMARK    1  A    between atoms: C1_1  and  O1_2
REMARK    2  A    between atoms: O1_2  and  C2_3
REMARK    3  A    between atoms: C3_4  and  O6_26
REMARK    4  A    between atoms: C6_7  and  C8_9
REMARK    5  A    between atoms: C8_9  and  C9_10
REMARK    6  A    between atoms: C12_15  and  C13_16
REMARK    7  A    between atoms: C13_16  and  C14_17
REMARK    8  A    between atoms: C16_19  and  O5_24
REMARK    9  A    between atoms: C17_20  and  O4_23
REMARK   10  A    between atoms: O5_24  and  C20_25
REMARK                            x       y       z     vdW  Elec       q    Type
REMARK                         _______ _______ _______ _____ _____    ______ ____
ROOT
ATOM      1  C9  UNL     1     -17.458  12.925  41.033  0.00  0.00    +0.045 C 
ATOM      2  C10 UNL     1     -17.556  14.122  41.958  0.00  0.00    +0.236 C 
ATOM      3  O2  UNL     1     -17.497  15.262  41.102  0.00  0.00    -0.464 OA
ATOM      4  C11 UNL     1     -17.898  14.905  39.846  0.00  0.00    +0.311 C 
ATOM      5  O3  UNL     1     -18.006  15.692  38.921  0.00  0.00    -0.251 OA
ATOM      6  C12 UNL     1     -18.209  13.428  39.795  0.00  0.00    +0.109 C 
ENDROOT
BRANCH   1   7
ATOM      7  C8  UNL     1     -15.995  12.577  40.675  0.00  0.00    +0.043 C 
BRANCH   7  12
ATOM      8  C2  UNL     1     -16.371   8.852  41.445  0.00  0.00    +0.162 A 
ATOM      9  C3  UNL     1     -15.039   8.431  41.328  0.00  0.00    +0.158 A 
ATOM     10  C4  UNL     1     -14.024   9.333  41.013  0.00  0.00    +0.049 A 
ATOM     11  C5  UNL     1     -14.334  10.678  40.806  0.00  0.00    +0.007 A 
ATOM     12  C6  UNL     1     -15.658  11.123  40.912  0.00  0.00    -0.043 A 
ATOM     13  C7  UNL     1     -16.669  10.203  41.237  0.00  0.00    +0.053 A 
BRANCH   8  15
ATOM     14  C1  UNL     1     -18.406   7.733  40.896  0.00  0.00    +0.277 C 
ATOM     15  O1  UNL     1     -17.287   7.883  41.757  0.00  0.00    -0.491 OA
ENDBRANCH   8  15
BRANCH   9  16
ATOM     16  O6  UNL     1     -14.735   7.111  41.528  0.00  0.00    -0.503 OA
ATOM     17  H22 UNL     1     -15.557   6.602  41.601  0.00  0.00    +0.292 HD
ENDBRANCH   9  16
ENDBRANCH   7  12
ENDBRANCH   1   7
BRANCH   6  18
ATOM     18  C13 UNL     1     -19.727  13.215  39.890  0.00  0.00    +0.050 C 
BRANCH  18  19
ATOM     19  C14 UNL     1     -20.336  12.846  38.555  0.00  0.00    -0.043 A 
ATOM     20  C15 UNL     1     -19.515  12.542  37.457  0.00  0.00    +0.053 A 
ATOM     21  C16 UNL     1     -20.068  12.177  36.225  0.00  0.00    +0.162 A 
ATOM     22  C17 UNL     1     -21.461  12.138  36.097  0.00  0.00    +0.158 A 
ATOM     23  C18 UNL     1     -22.291  12.437  37.179  0.00  0.00    +0.049 A 
ATOM     24  C19 UNL     1     -21.727  12.784  38.407  0.00  0.00    +0.007 A 
BRANCH  22  25
ATOM     25  O4  UNL     1     -22.015  11.794  34.892  0.00  0.00    -0.503 OA
ATOM     26  H18 UNL     1     -21.308  11.546  34.277  0.00  0.00    +0.292 HD
ENDBRANCH  22  25
BRANCH  21  27
ATOM     27  O5  UNL     1     -19.343  11.860  35.106  0.00  0.00    -0.491 OA
ATOM     28  C20 UNL     1     -18.167  11.085  35.299  0.00  0.00    +0.277 C 
ENDBRANCH  21  27
ENDBRANCH  18  19
ENDBRANCH   6  18
TORSDOF 8
ENDMDL
MODEL 5
REMARK VINA RESULT:    -7.638      3.011      8.174
REMARK INTER + INTRA:         -11.734
REMARK INTER:                 -10.651
REMARK INTRA:                  -1.083
REMARK UNBOUND:                -0.970
REMARK  Name = data/mahkota_dewa_dn/results/docking/ligands/pdb/Matairesinol.pdb
REMARK  10 active torsions:
REMARK  status: ('A' for Active; 'I' for Inactive)
REMARK    1  A    between atoms: C1_1  and  O1_2
REMARK    2  A    between atoms: O1_2  and  C2_3
REMARK    3  A    between atoms: C3_4  and  O6_26
REMARK    4  A    between atoms: C6_7  and  C8_9
REMARK    5  A    between atoms: C8_9  and  C9_10
REMARK    6  A    between atoms: C12_15  and  C13_16
REMARK    7  A    between atoms: C13_16  and  C14_17
REMARK    8  A    between atoms: C16_19  and  O5_24
REMARK    9  A    between atoms: C17_20  and  O4_23
REMARK   10  A    between atoms: O5_24  and  C20_25
REMARK                            x       y       z     vdW  Elec       q    Type
REMARK                         _______ _______ _______ _____ _____    ______ ____
ROOT
ATOM      1  C9  UNL     1     -18.164  13.375  39.635  0.00  0.00    +0.045 C 
ATOM      2  C10 UNL     1     -17.882  14.865  39.637  0.00  0.00    +0.236 C 
ATOM      3  O2  UNL     1     -17.862  15.239  41.014  0.00  0.00    -0.464 OA
ATOM      4  C11 UNL     1     -17.573  14.143  41.776  0.00  0.00    +0.311 C 
ATOM      5  O3  UNL     1     -17.430  14.180  42.986  0.00  0.00    -0.251 OA
ATOM      6  C12 UNL     1     -17.432  12.920  40.902  0.00  0.00    +0.109 C 
ENDROOT
BRANCH   1   7
ATOM      7  C8  UNL     1     -19.674  13.063  39.740  0.00  0.00    +0.043 C 
BRANCH   7  12
ATOM      8  C2  UNL     1     -20.062  12.160  36.046  0.00  0.00    +0.162 A 
ATOM      9  C3  UNL     1     -21.456  12.056  35.953  0.00  0.00    +0.158 A 
ATOM     10  C4  UNL     1     -22.271  12.280  37.062  0.00  0.00    +0.049 A 
ATOM     11  C5  UNL     1     -21.693  12.612  38.288  0.00  0.00    +0.007 A 
ATOM     12  C6  UNL     1     -20.301  12.717  38.409  0.00  0.00    -0.043 A 
ATOM     13  C7  UNL     1     -19.494  12.495  37.280  0.00  0.00    +0.053 A 
BRANCH   8  15
ATOM     14  C1  UNL     1     -18.510  10.779  34.871  0.00  0.00    +0.277 C 
ATOM     15  O1  UNL     1     -19.358  11.918  34.896  0.00  0.00    -0.491 OA
ENDBRANCH   8  15
BRANCH   9  16
ATOM     16  O6  UNL     1     -22.023  11.728  34.750  0.00  0.00    -0.503 OA
ATOM     17  H22 UNL     1     -21.618  12.262  34.051  0.00  0.00    +0.292 HD
ENDBRANCH   9  16
ENDBRANCH   7  12
ENDBRANCH   1   7
BRANCH   6  18
ATOM     18  C13 UNL     1     -15.945  12.626  40.659  0.00  0.00    +0.050 C 
BRANCH  18  19
ATOM     19  C14 UNL     1     -15.599  11.177  40.921  0.00  0.00    -0.043 A 
ATOM     20  C15 UNL     1     -16.579  10.282  41.380  0.00  0.00    +0.053 A 
ATOM     21  C16 UNL     1     -16.275   8.935  41.603  0.00  0.00    +0.162 A 
ATOM     22  C17 UNL     1     -14.965   8.494  41.381  0.00  0.00    +0.158 A 
ATOM     23  C18 UNL     1     -13.980   9.371  40.926  0.00  0.00    +0.049 A 
ATOM     24  C19 UNL     1     -14.299  10.708  40.691  0.00  0.00    +0.007 A 
BRANCH  22  25
ATOM     25  O4  UNL     1     -14.652   7.180  41.609  0.00  0.00    -0.503 OA
ATOM     26  H18 UNL     1     -15.302   6.800  42.219  0.00  0.00    +0.292 HD
ENDBRANCH  22  25
BRANCH  21  27
ATOM     27  O5  UNL     1     -17.169   7.995  42.044  0.00  0.00    -0.491 OA
ATOM     28  C20 UNL     1     -18.052   7.443  41.076  0.00  0.00    +0.277 C 
ENDBRANCH  21  27
ENDBRANCH  18  19
ENDBRANCH   6  18
TORSDOF 8
ENDMDL
MODEL 6
REMARK VINA RESULT:    -7.638      1.614      5.071
REMARK INTER + INTRA:         -11.733
REMARK INTER:                  -9.948
REMARK INTRA:                  -1.785
REMARK UNBOUND:                -0.970
REMARK  Name = data/mahkota_dewa_dn/results/docking/ligands/pdb/Matairesinol.pdb
REMARK  10 active torsions:
REMARK  status: ('A' for Active; 'I' for Inactive)
REMARK    1  A    between atoms: C1_1  and  O1_2
REMARK    2  A    between atoms: O1_2  and  C2_3
REMARK    3  A    between atoms: C3_4  and  O6_26
REMARK    4  A    between atoms: C6_7  and  C8_9
REMARK    5  A    between atoms: C8_9  and  C9_10
REMARK    6  A    between atoms: C12_15  and  C13_16
REMARK    7  A    between atoms: C13_16  and  C14_17
REMARK    8  A    between atoms: C16_19  and  O5_24
REMARK    9  A    between atoms: C17_20  and  O4_23
REMARK   10  A    between atoms: O5_24  and  C20_25
REMARK                            x       y       z     vdW  Elec       q    Type
REMARK                         _______ _______ _______ _____ _____    ______ ____
ROOT
ATOM      1  C9  UNL     1     -22.530  11.214  36.767  0.00  0.00    +0.045 C 
ATOM      2  C10 UNL     1     -23.527  10.076  36.653  0.00  0.00    +0.236 C 
ATOM      3  O2  UNL     1     -24.555  10.566  35.793  0.00  0.00    -0.464 OA
ATOM      4  C11 UNL     1     -24.053  11.567  35.012  0.00  0.00    +0.311 C 
ATOM      5  O3  UNL     1     -24.692  12.129  34.139  0.00  0.00    -0.251 OA
ATOM      6  C12 UNL     1     -22.610  11.837  35.369  0.00  0.00    +0.109 C 
ENDROOT
BRANCH   1   7
ATOM      7  C8  UNL     1     -22.937  12.245  37.844  0.00  0.00    +0.043 C 
BRANCH   7  12
ATOM      8  C2  UNL     1     -19.671  13.248  39.558  0.00  0.00    +0.162 A 
ATOM      9  C3  UNL     1     -19.616  14.609  39.227  0.00  0.00    +0.158 A 
ATOM     10  C4  UNL     1     -20.621  15.207  38.466  0.00  0.00    +0.049 A 
ATOM     11  C5  UNL     1     -21.699  14.441  38.023  0.00  0.00    +0.007 A 
ATOM     12  C6  UNL     1     -21.775  13.078  38.336  0.00  0.00    -0.043 A 
ATOM     13  C7  UNL     1     -20.758  12.492  39.109  0.00  0.00    +0.053 A 
BRANCH   8  15
ATOM     14  C1  UNL     1     -17.725  11.873  39.676  0.00  0.00    +0.277 C 
ATOM     15  O1  UNL     1     -18.631  12.765  40.307  0.00  0.00    -0.491 OA
ENDBRANCH   8  15
BRANCH   9  16
ATOM     16  O6  UNL     1     -18.556  15.360  39.660  0.00  0.00    -0.503 OA
ATOM     17  H22 UNL     1     -18.813  16.294  39.679  0.00  0.00    +0.292 HD
ENDBRANCH   9  16
ENDBRANCH   7  12
ENDBRANCH   1   7
BRANCH   6  18
ATOM     18  C13 UNL     1     -21.688  11.146  34.355  0.00  0.00    +0.050 C 
BRANCH  18  19
ATOM     19  C14 UNL     1     -20.268  11.025  34.864  0.00  0.00    -0.043 A 
ATOM     20  C15 UNL     1     -19.546   9.834  34.683  0.00  0.00    +0.053 A 
ATOM     21  C16 UNL     1     -18.225   9.720  35.129  0.00  0.00    +0.162 A 
ATOM     22  C17 UNL     1     -17.638  10.810  35.782  0.00  0.00    +0.158 A 
ATOM     23  C18 UNL     1     -18.342  12.000  35.970  0.00  0.00    +0.049 A 
ATOM     24  C19 UNL     1     -19.653  12.108  35.505  0.00  0.00    +0.007 A 
BRANCH  22  25
ATOM     25  O4  UNL     1     -16.349  10.706  36.235  0.00  0.00    -0.503 OA
ATOM     26  H18 UNL     1     -16.187   9.795  36.525  0.00  0.00    +0.292 HD
ENDBRANCH  22  25
BRANCH  21  27
ATOM     27  O5  UNL     1     -17.447   8.600  34.989  0.00  0.00    -0.491 OA
ATOM     28  C20 UNL     1     -17.890   7.422  35.652  0.00  0.00    +0.277 C 
ENDBRANCH  21  27
ENDBRANCH  18  19
ENDBRANCH   6  18
TORSDOF 8
ENDMDL
MODEL 7
REMARK VINA RESULT:    -7.567      1.942      6.231
REMARK INTER + INTRA:         -11.635
REMARK INTER:                 -10.087
REMARK INTRA:                  -1.547
REMARK UNBOUND:                -0.970
REMARK  Name = data/mahkota_dewa_dn/results/docking/ligands/pdb/Matairesinol.pdb
REMARK  10 active torsions:
REMARK  status: ('A' for Active; 'I' for Inactive)
REMARK    1  A    between atoms: C1_1  and  O1_2
REMARK    2  A    between atoms: O1_2  and  C2_3
REMARK    3  A    between atoms: C3_4  and  O6_26
REMARK    4  A    between atoms: C6_7  and  C8_9
REMARK    5  A    between atoms: C8_9  and  C9_10
REMARK    6  A    between atoms: C12_15  and  C13_16
REMARK    7  A    between atoms: C13_16  and  C14_17
REMARK    8  A    between atoms: C16_19  and  O5_24
REMARK    9  A    between atoms: C17_20  and  O4_23
REMARK   10  A    between atoms: O5_24  and  C20_25
REMARK                            x       y       z     vdW  Elec       q    Type
REMARK                         _______ _______ _______ _____ _____    ______ ____
ROOT
ATOM      1  C9  UNL     1     -19.070  14.075  38.997  0.00  0.00    +0.045 C 
ATOM      2  C10 UNL     1     -18.313  15.370  39.219  0.00  0.00    +0.236 C 
ATOM      3  O2  UNL     1     -18.026  15.401  40.616  0.00  0.00    -0.464 OA
ATOM      4  C11 UNL     1     -18.038  14.127  41.108  0.00  0.00    +0.311 C 
ATOM      5  O3  UNL     1     -17.765  13.844  42.262  0.00  0.00    -0.251 OA
ATOM      6  C12 UNL     1     -18.402  13.147  40.017  0.00  0.00    +0.109 C 
ENDROOT
BRANCH   1   7
ATOM      7  C8  UNL     1     -20.579  14.218  39.302  0.00  0.00    +0.043 C 
BRANCH   7  12
ATOM      8  C2  UNL     1     -22.689  12.035  36.980  0.00  0.00    +0.162 A 
ATOM      9  C3  UNL     1     -22.901  10.919  37.800  0.00  0.00    +0.158 A 
ATOM     10  C4  UNL     1     -22.379  10.865  39.092  0.00  0.00    +0.049 A 
ATOM     11  C5  UNL     1     -21.631  11.937  39.580  0.00  0.00    +0.007 A 
ATOM     12  C6  UNL     1     -21.400  13.062  38.778  0.00  0.00    -0.043 A 
ATOM     13  C7  UNL     1     -21.938  13.104  37.480  0.00  0.00    +0.053 A 
BRANCH   8  15
ATOM     14  C1  UNL     1     -22.382  11.700  34.636  0.00  0.00    +0.277 C 
ATOM     15  O1  UNL     1     -23.245  11.981  35.728  0.00  0.00    -0.491 OA
ENDBRANCH   8  15
BRANCH   9  16
ATOM     16  O6  UNL     1     -23.633   9.866  37.320  0.00  0.00    -0.503 OA
ATOM     17  H22 UNL     1     -24.460  10.199  36.941  0.00  0.00    +0.292 HD
ENDBRANCH   9  16
ENDBRANCH   7  12
ENDBRANCH   1   7
BRANCH   6  18
ATOM     18  C13 UNL     1     -17.129  12.481  39.474  0.00  0.00    +0.050 C 
BRANCH  18  19
ATOM     19  C14 UNL     1     -17.428  11.498  38.364  0.00  0.00    -0.043 A 
ATOM     20  C15 UNL     1     -17.984  10.241  38.657  0.00  0.00    +0.053 A 
ATOM     21  C16 UNL     1     -18.286   9.334  37.636  0.00  0.00    +0.162 A 
ATOM     22  C17 UNL     1     -18.005   9.691  36.312  0.00  0.00    +0.158 A 
ATOM     23  C18 UNL     1     -17.452  10.935  36.005  0.00  0.00    +0.049 A 
ATOM     24  C19 UNL     1     -17.171  11.838  37.030  0.00  0.00    +0.007 A 
BRANCH  22  25
ATOM     25  O4  UNL     1     -18.284   8.806  35.304  0.00  0.00    -0.503 OA
ATOM     26  H18 UNL     1     -18.516   9.300  34.503  0.00  0.00    +0.292 HD
ENDBRANCH  22  25
BRANCH  21  27
ATOM     27  O5  UNL     1     -18.834   8.093  37.830  0.00  0.00    -0.491 OA
ATOM     28  C20 UNL     1     -20.213   8.044  38.170  0.00  0.00    +0.277 C 
ENDBRANCH  21  27
ENDBRANCH  18  19
ENDBRANCH   6  18
TORSDOF 8
ENDMDL
MODEL 8
REMARK VINA RESULT:    -7.558      2.285      3.577
REMARK INTER + INTRA:         -11.622
REMARK INTER:                 -10.147
REMARK INTRA:                  -1.475
REMARK UNBOUND:                -0.970
REMARK  Name = data/mahkota_dewa_dn/results/docking/ligands/pdb/Matairesinol.pdb
REMARK  10 active torsions:
REMARK  status: ('A' for Active; 'I' for Inactive)
REMARK    1  A    between atoms: C1_1  and  O1_2
REMARK    2  A    between atoms: O1_2  and  C2_3
REMARK    3  A    between atoms: C3_4  and  O6_26
REMARK    4  A    between atoms: C6_7  and  C8_9
REMARK    5  A    between atoms: C8_9  and  C9_10
REMARK    6  A    between atoms: C12_15  and  C13_16
REMARK    7  A    between atoms: C13_16  and  C14_17
REMARK    8  A    between atoms: C16_19  and  O5_24
REMARK    9  A    between atoms: C17_20  and  O4_23
REMARK   10  A    between atoms: O5_24  and  C20_25
REMARK                            x       y       z     vdW  Elec       q    Type
REMARK                         _______ _______ _______ _____ _____    ______ ____
ROOT
ATOM      1  C9  UNL     1     -19.084  10.316  37.915  0.00  0.00    +0.045 C 
ATOM      2  C10 UNL     1     -18.849   8.890  37.457  0.00  0.00    +0.236 C 
ATOM      3  O2  UNL     1     -18.250   8.233  38.573  0.00  0.00    -0.464 OA
ATOM      4  C11 UNL     1     -18.581   8.897  39.720  0.00  0.00    +0.311 C 
ATOM      5  O3  UNL     1     -18.259   8.523  40.835  0.00  0.00    -0.251 OA
ATOM      6  C12 UNL     1     -19.415  10.114  39.398  0.00  0.00    +0.109 C 
ENDROOT
BRANCH   1   7
ATOM      7  C8  UNL     1     -17.825  11.199  37.756  0.00  0.00    +0.043 C 
BRANCH   7  12
ATOM      8  C2  UNL     1     -17.681  14.381  39.867  0.00  0.00    +0.162 A 
ATOM      9  C3  UNL     1     -18.414  15.259  39.057  0.00  0.00    +0.158 A 
ATOM     10  C4  UNL     1     -18.958  14.836  37.845  0.00  0.00    +0.049 A 
ATOM     11  C5  UNL     1     -18.771  13.518  37.427  0.00  0.00    +0.007 A 
ATOM     12  C6  UNL     1     -18.038  12.623  38.216  0.00  0.00    -0.043 A 
ATOM     13  C7  UNL     1     -17.502  13.063  39.438  0.00  0.00    +0.053 A 
BRANCH   8  15
ATOM     14  C1  UNL     1     -17.456  14.191  42.235  0.00  0.00    +0.277 C 
ATOM     15  O1  UNL     1     -17.190  14.903  41.035  0.00  0.00    -0.491 OA
ENDBRANCH   8  15
BRANCH   9  16
ATOM     16  O6  UNL     1     -18.595  16.554  39.466  0.00  0.00    -0.503 OA
ATOM     17  H22 UNL     1     -18.656  17.128  38.689  0.00  0.00    +0.292 HD
ENDBRANCH   9  16
ENDBRANCH   7  12
ENDBRANCH   1   7
BRANCH   6  18
ATOM     18  C13 UNL     1     -20.899   9.805  39.641  0.00  0.00    +0.050 C 
BRANCH  18  19
ATOM     19  C14 UNL     1     -21.800  10.529  38.666  0.00  0.00    -0.043 A 
ATOM     20  C15 UNL     1     -22.531   9.813  37.704  0.00  0.00    +0.053 A 
ATOM     21  C16 UNL     1     -23.385  10.471  36.813  0.00  0.00    +0.162 A 
ATOM     22  C17 UNL     1     -23.486  11.866  36.882  0.00  0.00    +0.158 A 
ATOM     23  C18 UNL     1     -22.767  12.592  37.832  0.00  0.00    +0.049 A 
ATOM     24  C19 UNL     1     -21.931  11.923  38.726  0.00  0.00    +0.007 A 
BRANCH  22  25
ATOM     25  O4  UNL     1     -24.309  12.523  36.007  0.00  0.00    -0.503 OA
ATOM     26  H18 UNL     1     -23.771  12.936  35.314  0.00  0.00    +0.292 HD
ENDBRANCH  22  25
BRANCH  21  27
ATOM     27  O5  UNL     1     -24.137   9.851  35.849  0.00  0.00    -0.491 OA
ATOM     28  C20 UNL     1     -23.478   9.520  34.633  0.00  0.00    +0.277 C 
ENDBRANCH  21  27
ENDBRANCH  18  19
ENDBRANCH   6  18
TORSDOF 8
ENDMDL
MODEL 9
REMARK VINA RESULT:    -7.327      1.802      6.967
REMARK INTER + INTRA:         -11.296
REMARK INTER:                 -10.155
REMARK INTRA:                  -1.141
REMARK UNBOUND:                -0.970
REMARK  Name = data/mahkota_dewa_dn/results/docking/ligands/pdb/Matairesinol.pdb
REMARK  10 active torsions:
REMARK  status: ('A' for Active; 'I' for Inactive)
REMARK    1  A    between atoms: C1_1  and  O1_2
REMARK    2  A    between atoms: O1_2  and  C2_3
REMARK    3  A    between atoms: C3_4  and  O6_26
REMARK    4  A    between atoms: C6_7  and  C8_9
REMARK    5  A    between atoms: C8_9  and  C9_10
REMARK    6  A    between atoms: C12_15  and  C13_16
REMARK    7  A    between atoms: C13_16  and  C14_17
REMARK    8  A    between atoms: C16_19  and  O5_24
REMARK    9  A    between atoms: C17_20  and  O4_23
REMARK   10  A    between atoms: O5_24  and  C20_25
REMARK                            x       y       z     vdW  Elec       q    Type
REMARK                         _______ _______ _______ _____ _____    ______ ____
ROOT
ATOM      1  C9  UNL     1     -22.418  12.207  36.272  0.00  0.00    +0.045 C 
ATOM      2  C10 UNL     1     -23.886  11.833  36.331  0.00  0.00    +0.236 C 
ATOM      3  O2  UNL     1     -23.908  10.471  36.758  0.00  0.00    -0.464 OA
ATOM      4  C11 UNL     1     -22.753  10.190  37.431  0.00  0.00    +0.311 C 
ATOM      5  O3  UNL     1     -22.525   9.117  37.963  0.00  0.00    -0.251 OA
ATOM      6  C12 UNL     1     -21.844  11.396  37.439  0.00  0.00    +0.109 C 
ENDROOT
BRANCH   1   7
ATOM      7  C8  UNL     1     -21.757  11.782  34.941  0.00  0.00    +0.043 C 
BRANCH   7  12
ATOM      8  C2  UNL     1     -19.007   9.127  34.981  0.00  0.00    +0.162 A 
ATOM      9  C3  UNL     1     -17.931   9.881  35.467  0.00  0.00    +0.158 A 
ATOM     10  C4  UNL     1     -18.083  11.230  35.788  0.00  0.00    +0.049 A 
ATOM     11  C5  UNL     1     -19.324  11.843  35.622  0.00  0.00    +0.007 A 
ATOM     12  C6  UNL     1     -20.415  11.113  35.133  0.00  0.00    -0.043 A 
ATOM     13  C7  UNL     1     -20.248   9.753  34.820  0.00  0.00    +0.053 A 
BRANCH   8  15
ATOM     14  C1  UNL     1     -19.402   6.827  35.482  0.00  0.00    +0.277 C 
ATOM     15  O1  UNL     1     -18.746   7.813  34.697  0.00  0.00    -0.491 OA
ENDBRANCH   8  15
BRANCH   9  16
ATOM     16  O6  UNL     1     -16.711   9.279  35.628  0.00  0.00    -0.503 OA
ATOM     17  H22 UNL     1     -16.292   9.171  34.761  0.00  0.00    +0.292 HD
ENDBRANCH   9  16
ENDBRANCH   7  12
ENDBRANCH   1   7
BRANCH   6  18
ATOM     18  C13 UNL     1     -21.963  12.125  38.786  0.00  0.00    +0.050 C 
BRANCH  18  19
ATOM     19  C14 UNL     1     -20.941  13.230  38.929  0.00  0.00    -0.043 A 
ATOM     20  C15 UNL     1     -19.651  12.950  39.409  0.00  0.00    +0.053 A 
ATOM     21  C16 UNL     1     -18.691  13.961  39.523  0.00  0.00    +0.162 A 
ATOM     22  C17 UNL     1     -19.044  15.269  39.169  0.00  0.00    +0.158 A 
ATOM     23  C18 UNL     1     -20.321  15.563  38.691  0.00  0.00    +0.049 A 
ATOM     24  C19 UNL     1     -21.265  14.544  38.566  0.00  0.00    +0.007 A 
BRANCH  22  25
ATOM     25  O4  UNL     1     -18.117  16.270  39.288  0.00  0.00    -0.503 OA
ATOM     26  H18 UNL     1     -17.241  15.877  39.419  0.00  0.00    +0.292 HD
ENDBRANCH  22  25
BRANCH  21  27
ATOM     27  O5  UNL     1     -17.411  13.776  39.975  0.00  0.00    -0.491 OA
ATOM     28  C20 UNL     1     -17.247  13.547  41.369  0.00  0.00    +0.277 C 
ENDBRANCH  21  27
ENDBRANCH  18  19
ENDBRANCH   6  18
TORSDOF 8
ENDMDL
