MODEL 1
REMARK VINA RESULT:    -5.738      0.000      0.000
REMARK INTER + INTRA:          -6.803
REMARK INTER:                  -6.744
REMARK INTRA:                  -0.059
REMARK UNBOUND:                -0.059
REMARK  Name = data/mahkota_dewa_dn/results/docking/ligands/pdb/Gallic_acid.pdb
REMARK  5 active torsions:
REMARK  status: ('A' for Active; 'I' for Inactive)
REMARK    1  A    between atoms: C2_2  and  C7_10
REMARK    2  A    between atoms: C4_4  and  O3_9
REMARK    3  A    between atoms: C5_5  and  O2_8
REMARK    4  A    between atoms: C6_6  and  O1_7
REMARK    5  A    between atoms: C7_10  and  O5_12
REMARK                            x       y       z     vdW  Elec       q    Type
REMARK                         _______ _______ _______ _____ _____    ______ ____
ROOT
ATOM      1  C1  UNL     1     -17.525  13.298  40.161  0.00  0.00    +0.064 A 
ATOM      2  C2  UNL     1     -16.521  13.212  41.139  0.00  0.00    +0.066 A 
ATOM      3  C3  UNL     1     -15.547  12.204  41.068  0.00  0.00    +0.064 A 
ATOM      4  C4  UNL     1     -15.593  11.293  40.019  0.00  0.00    +0.163 A 
ATOM      5  C5  UNL     1     -16.589  11.377  39.046  0.00  0.00    +0.201 A 
ATOM      6  C6  UNL     1     -17.555  12.377  39.116  0.00  0.00    +0.163 A 
ENDROOT
BRANCH   6   7
ATOM      7  O1  UNL     1     -18.525  12.447  38.157  0.00  0.00    -0.503 OA
ATOM      8  H3  UNL     1     -18.122  12.353  37.280  0.00  0.00    +0.292 HD
ENDBRANCH   6   7
BRANCH   5   9
ATOM      9  O2  UNL     1     -16.601  10.464  38.028  0.00  0.00    -0.501 OA
ATOM     10  H4  UNL     1     -16.059   9.719  38.351  0.00  0.00    +0.292 HD
ENDBRANCH   5   9
BRANCH   4  11
ATOM     11  O3  UNL     1     -14.670  10.290  39.899  0.00  0.00    -0.503 OA
ATOM     12  H5  UNL     1     -14.858   9.790  39.085  0.00  0.00    +0.292 HD
ENDBRANCH   4  11
BRANCH   2  13
ATOM     13  C7  UNL     1     -16.530  14.214  42.232  0.00  0.00    +0.337 C 
ATOM     14  O4  UNL     1     -15.872  14.157  43.254  0.00  0.00    -0.245 OA
BRANCH  13  15
ATOM     15  O5  UNL     1     -17.365  15.240  41.992  0.00  0.00    -0.477 OA
ATOM     16  H6  UNL     1     -17.671  15.506  42.886  0.00  0.00    +0.295 HD
ENDBRANCH  13  15
ENDBRANCH   2  13
TORSDOF 5
ENDMDL
MODEL 2
REMARK VINA RESULT:    -5.686      0.119      2.394
REMARK INTER + INTRA:          -6.742
REMARK INTER:                  -6.686
REMARK INTRA:                  -0.057
REMARK UNBOUND:                -0.059
REMARK  Name = data/mahkota_dewa_dn/results/docking/ligands/pdb/Gallic_acid.pdb
REMARK  5 active torsions:
REMARK  status: ('A' for Active; 'I' for Inactive)
REMARK    1  A    between atoms: C2_2  and  C7_10
REMARK    2  A    between atoms: C4_4  and  O3_9
REMARK    3  A    between atoms: C5_5  and  O2_8
REMARK    4  A    between atoms: C6_6  and  O1_7
REMARK    5  A    between atoms: C7_10  and  O5_12
REMARK                            x       y       z     vdW  Elec       q    Type
REMARK                         _______ _______ _______ _____ _____    ______ ____
ROOT
ATOM      1  C1  UNL     1     -15.618  12.206  40.985  0.00  0.00    +0.064 A 
ATOM      2  C2  UNL     1     -16.614  13.196  41.029  0.00  0.00    +0.066 A 
ATOM      3  C3  UNL     1     -17.603  13.252  40.036  0.00  0.00    +0.064 A 
ATOM      4  C4  UNL     1     -17.581  12.316  39.008  0.00  0.00    +0.163 A 
ATOM      5  C5  UNL     1     -16.593  11.332  38.961  0.00  0.00    +0.201 A 
ATOM      6  C6  UNL     1     -15.612  11.277  39.947  0.00  0.00    +0.163 A 
ENDROOT
BRANCH   6   7
ATOM      7  O1  UNL     1     -14.650  10.308  39.889  0.00  0.00    -0.503 OA
ATOM      8  H3  UNL     1     -14.711   9.841  39.041  0.00  0.00    +0.292 HD
ENDBRANCH   6   7
BRANCH   5   9
ATOM      9  O2  UNL     1     -16.604  10.429  37.935  0.00  0.00    -0.501 OA
ATOM     10  H4  UNL     1     -16.958   9.607  38.326  0.00  0.00    +0.292 HD
ENDBRANCH   5   9
BRANCH   4  11
ATOM     11  O3  UNL     1     -18.519  12.321  38.011  0.00  0.00    -0.503 OA
ATOM     12  H5  UNL     1     -19.210  12.968  38.238  0.00  0.00    +0.292 HD
ENDBRANCH   4  11
BRANCH   2  13
ATOM     13  C7  UNL     1     -16.581  14.164  42.152  0.00  0.00    +0.337 C 
ATOM     14  O4  UNL     1     -15.908  14.060  43.161  0.00  0.00    -0.245 OA
BRANCH  13  15
ATOM     15  O5  UNL     1     -17.393  15.217  41.957  0.00  0.00    -0.477 OA
ATOM     16  H6  UNL     1     -16.780  15.942  41.708  0.00  0.00    +0.295 HD
ENDBRANCH  13  15
ENDBRANCH   2  13
TORSDOF 5
ENDMDL
MODEL 3
REMARK VINA RESULT:    -5.475      1.216      4.234
REMARK INTER + INTRA:          -6.495
REMARK INTER:                  -6.437
REMARK INTRA:                  -0.057
REMARK UNBOUND:                -0.059
REMARK  Name = data/mahkota_dewa_dn/results/docking/ligands/pdb/Gallic_acid.pdb
REMARK  5 active torsions:
REMARK  status: ('A' for Active; 'I' for Inactive)
REMARK    1  A    between atoms: C2_2  and  C7_10
REMARK    2  A    between atoms: C4_4  and  O3_9
REMARK    3  A    between atoms: C5_5  and  O2_8
REMARK    4  A    between atoms: C6_6  and  O1_7
REMARK    5  A    between atoms: C7_10  and  O5_12
REMARK                            x       y       z     vdW  Elec       q    Type
REMARK                         _______ _______ _______ _____ _____    ______ ____
ROOT
ATOM      1  C1  UNL     1     -16.328  13.290  41.362  0.00  0.00    +0.064 A 
ATOM      2  C2  UNL     1     -16.400  12.414  40.266  0.00  0.00    +0.066 A 
ATOM      3  C3  UNL     1     -17.347  12.624  39.252  0.00  0.00    +0.064 A 
ATOM      4  C4  UNL     1     -18.212  13.707  39.349  0.00  0.00    +0.163 A 
ATOM      5  C5  UNL     1     -18.143  14.579  40.437  0.00  0.00    +0.201 A 
ATOM      6  C6  UNL     1     -17.203  14.371  41.443  0.00  0.00    +0.163 A 
ENDROOT
BRANCH   6   7
ATOM      7  O1  UNL     1     -17.147  15.232  42.502  0.00  0.00    -0.503 OA
ATOM      8  H3  UNL     1     -17.659  14.870  43.242  0.00  0.00    +0.292 HD
ENDBRANCH   6   7
BRANCH   5   9
ATOM      9  O2  UNL     1     -19.011  15.634  40.498  0.00  0.00    -0.501 OA
ATOM     10  H4  UNL     1     -18.460  16.423  40.332  0.00  0.00    +0.292 HD
ENDBRANCH   5   9
BRANCH   4  11
ATOM     11  O3  UNL     1     -19.156  13.961  38.391  0.00  0.00    -0.503 OA
ATOM     12  H5  UNL     1     -18.727  14.416  37.645  0.00  0.00    +0.292 HD
ENDBRANCH   4  11
BRANCH   2  13
ATOM     13  C7  UNL     1     -15.449  11.278  40.223  0.00  0.00    +0.337 C 
ATOM     14  O4  UNL     1     -14.494  11.122  40.961  0.00  0.00    -0.245 OA
BRANCH  13  15
ATOM     15  O5  UNL     1     -15.740  10.390  39.256  0.00  0.00    -0.477 OA
ATOM     16  H6  UNL     1     -14.888   9.929  39.099  0.00  0.00    +0.295 HD
ENDBRANCH  13  15
ENDBRANCH   2  13
TORSDOF 5
ENDMDL
MODEL 4
REMARK VINA RESULT:    -5.318      1.896      3.468
REMARK INTER + INTRA:          -6.310
REMARK INTER:                  -6.260
REMARK INTRA:                  -0.050
REMARK UNBOUND:                -0.059
REMARK  Name = data/mahkota_dewa_dn/results/docking/ligands/pdb/Gallic_acid.pdb
REMARK  5 active torsions:
REMARK  status: ('A' for Active; 'I' for Inactive)
REMARK    1  A    between atoms: C2_2  and  C7_10
REMARK    2  A    between atoms: C4_4  and  O3_9
REMARK    3  A    between atoms: C5_5  and  O2_8
REMARK    4  A    between atoms: C6_6  and  O1_7
REMARK    5  A    between atoms: C7_10  and  O5_12
REMARK                            x       y       z     vdW  Elec       q    Type
REMARK                         _______ _______ _______ _____ _____    ______ ____
ROOT
ATOM      1  C1  UNL     1     -17.333  13.548  39.904  0.00  0.00    +0.064 A 
ATOM      2  C2  UNL     1     -17.878  13.644  38.613  0.00  0.00    +0.066 A 
ATOM      3  C3  UNL     1     -17.693  12.607  37.687  0.00  0.00    +0.064 A 
ATOM      4  C4  UNL     1     -16.962  11.486  38.065  0.00  0.00    +0.163 A 
ATOM      5  C5  UNL     1     -16.419  11.389  39.346  0.00  0.00    +0.201 A 
ATOM      6  C6  UNL     1     -16.603  12.418  40.266  0.00  0.00    +0.163 A 
ENDROOT
BRANCH   6   7
ATOM      7  O1  UNL     1     -16.066  12.309  41.517  0.00  0.00    -0.503 OA
ATOM      8  H3  UNL     1     -16.773  12.353  42.179  0.00  0.00    +0.292 HD
ENDBRANCH   6   7
BRANCH   5   9
ATOM      9  O2  UNL     1     -15.706  10.271  39.682  0.00  0.00    -0.501 OA
ATOM     10  H4  UNL     1     -14.840  10.385  39.246  0.00  0.00    +0.292 HD
ENDBRANCH   5   9
BRANCH   4  11
ATOM     11  O3  UNL     1     -16.749  10.444  37.204  0.00  0.00    -0.503 OA
ATOM     12  H5  UNL     1     -17.032  10.714  36.313  0.00  0.00    +0.292 HD
ENDBRANCH   4  11
BRANCH   2  13
ATOM     13  C7  UNL     1     -18.647  14.866  38.274  0.00  0.00    +0.337 C 
ATOM     14  O4  UNL     1     -19.811  14.898  37.921  0.00  0.00    -0.245 OA
BRANCH  13  15
ATOM     15  O5  UNL     1     -17.918  15.990  38.393  0.00  0.00    -0.477 OA
ATOM     16  H6  UNL     1     -17.819  16.103  39.363  0.00  0.00    +0.295 HD
ENDBRANCH  13  15
ENDBRANCH   2  13
TORSDOF 5
ENDMDL
MODEL 5
REMARK VINA RESULT:    -5.312      1.368      1.883
REMARK INTER + INTRA:          -6.302
REMARK INTER:                  -6.255
REMARK INTRA:                  -0.047
REMARK UNBOUND:                -0.059
REMARK  Name = data/mahkota_dewa_dn/results/docking/ligands/pdb/Gallic_acid.pdb
REMARK  5 active torsions:
REMARK  status: ('A' for Active; 'I' for Inactive)
REMARK    1  A    between atoms: C2_2  and  C7_10
REMARK    2  A    between atoms: C4_4  and  O3_9
REMARK    3  A    between atoms: C5_5  and  O2_8
REMARK    4  A    between atoms: C6_6  and  O1_7
REMARK    5  A    between atoms: C7_10  and  O5_12
REMARK                            x       y       z     vdW  Elec       q    Type
REMARK                         _______ _______ _______ _____ _____    ______ ____
ROOT
ATOM      1  C1  UNL     1     -17.530  14.715  41.285  0.00  0.00    +0.064 A 
ATOM      2  C2  UNL     1     -16.556  14.045  42.043  0.00  0.00    +0.066 A 
ATOM      3  C3  UNL     1     -15.946  12.883  41.546  0.00  0.00    +0.064 A 
ATOM      4  C4  UNL     1     -16.323  12.405  40.296  0.00  0.00    +0.163 A 
ATOM      5  C5  UNL     1     -17.291  13.069  39.541  0.00  0.00    +0.201 A 
ATOM      6  C6  UNL     1     -17.895  14.222  40.034  0.00  0.00    +0.163 A 
ENDROOT
BRANCH   6   7
ATOM      7  O1  UNL     1     -18.841  14.862  39.285  0.00  0.00    -0.503 OA
ATOM      8  H3  UNL     1     -19.316  14.215  38.741  0.00  0.00    +0.292 HD
ENDBRANCH   6   7
BRANCH   5   9
ATOM      9  O2  UNL     1     -17.635  12.570  38.316  0.00  0.00    -0.501 OA
ATOM     10  H4  UNL     1     -16.807  12.578  37.798  0.00  0.00    +0.292 HD
ENDBRANCH   5   9
BRANCH   4  11
ATOM     11  O3  UNL     1     -15.763  11.277  39.760  0.00  0.00    -0.503 OA
ATOM     12  H5  UNL     1     -15.923  11.276  38.800  0.00  0.00    +0.292 HD
ENDBRANCH   4  11
BRANCH   2  13
ATOM     13  C7  UNL     1     -16.200  14.607  43.368  0.00  0.00    +0.337 C 
ATOM     14  O4  UNL     1     -15.577  15.633  43.562  0.00  0.00    -0.245 OA
BRANCH  13  15
ATOM     15  O5  UNL     1     -16.644  13.853  44.390  0.00  0.00    -0.477 OA
ATOM     16  H6  UNL     1     -17.100  14.496  44.974  0.00  0.00    +0.295 HD
ENDBRANCH  13  15
ENDBRANCH   2  13
TORSDOF 5
ENDMDL
MODEL 6
REMARK VINA RESULT:    -5.307      1.872      3.168
REMARK INTER + INTRA:          -6.296
REMARK INTER:                  -6.246
REMARK INTRA:                  -0.050
REMARK UNBOUND:                -0.059
REMARK  Name = data/mahkota_dewa_dn/results/docking/ligands/pdb/Gallic_acid.pdb
REMARK  5 active torsions:
REMARK  status: ('A' for Active; 'I' for Inactive)
REMARK    1  A    between atoms: C2_2  and  C7_10
REMARK    2  A    between atoms: C4_4  and  O3_9
REMARK    3  A    between atoms: C5_5  and  O2_8
REMARK    4  A    between atoms: C6_6  and  O1_7
REMARK    5  A    between atoms: C7_10  and  O5_12
REMARK                            x       y       z     vdW  Elec       q    Type
REMARK                         _______ _______ _______ _____ _____    ______ ____
ROOT
ATOM      1  C1  UNL     1     -17.662  12.610  37.776  0.00  0.00    +0.064 A 
ATOM      2  C2  UNL     1     -17.796  13.645  38.716  0.00  0.00    +0.066 A 
ATOM      3  C3  UNL     1     -17.208  13.529  39.985  0.00  0.00    +0.064 A 
ATOM      4  C4  UNL     1     -16.495  12.378  40.297  0.00  0.00    +0.163 A 
ATOM      5  C5  UNL     1     -16.361  11.348  39.365  0.00  0.00    +0.201 A 
ATOM      6  C6  UNL     1     -16.944  11.463  38.106  0.00  0.00    +0.163 A 
ENDROOT
BRANCH   6   7
ATOM      7  O1  UNL     1     -16.804  10.447  37.203  0.00  0.00    -0.503 OA
ATOM      8  H3  UNL     1     -16.795  10.810  36.304  0.00  0.00    +0.292 HD
ENDBRANCH   6   7
BRANCH   5   9
ATOM      9  O2  UNL     1     -15.652  10.231  39.708  0.00  0.00    -0.501 OA
ATOM     10  H4  UNL     1     -15.621   9.692  38.894  0.00  0.00    +0.292 HD
ENDBRANCH   5   9
BRANCH   4  11
ATOM     11  O3  UNL     1     -15.901  12.210  41.519  0.00  0.00    -0.503 OA
ATOM     12  H5  UNL     1     -16.049  13.011  42.050  0.00  0.00    +0.292 HD
ENDBRANCH   4  11
BRANCH   2  13
ATOM     13  C7  UNL     1     -18.569  14.846  38.321  0.00  0.00    +0.337 C 
ATOM     14  O4  UNL     1     -19.701  14.847  37.873  0.00  0.00    -0.245 OA
BRANCH  13  15
ATOM     15  O5  UNL     1     -17.886  15.990  38.505  0.00  0.00    -0.477 OA
ATOM     16  H6  UNL     1     -18.033  16.199  39.452  0.00  0.00    +0.295 HD
ENDBRANCH  13  15
ENDBRANCH   2  13
TORSDOF 5
ENDMDL
MODEL 7
REMARK VINA RESULT:    -5.267      1.995      3.610
REMARK INTER + INTRA:          -6.250
REMARK INTER:                  -6.197
REMARK INTRA:                  -0.053
REMARK UNBOUND:                -0.059
REMARK  Name = data/mahkota_dewa_dn/results/docking/ligands/pdb/Gallic_acid.pdb
REMARK  5 active torsions:
REMARK  status: ('A' for Active; 'I' for Inactive)
REMARK    1  A    between atoms: C2_2  and  C7_10
REMARK    2  A    between atoms: C4_4  and  O3_9
REMARK    3  A    between atoms: C5_5  and  O2_8
REMARK    4  A    between atoms: C6_6  and  O1_7
REMARK    5  A    between atoms: C7_10  and  O5_12
REMARK                            x       y       z     vdW  Elec       q    Type
REMARK                         _______ _______ _______ _____ _____    ______ ____
ROOT
ATOM      1  C1  UNL     1     -17.475  14.856  40.451  0.00  0.00    +0.064 A 
ATOM      2  C2  UNL     1     -17.129  13.506  40.275  0.00  0.00    +0.066 A 
ATOM      3  C3  UNL     1     -17.537  12.814  39.124  0.00  0.00    +0.064 A 
ATOM      4  C4  UNL     1     -18.289  13.483  38.165  0.00  0.00    +0.163 A 
ATOM      5  C5  UNL     1     -18.635  14.823  38.338  0.00  0.00    +0.201 A 
ATOM      6  C6  UNL     1     -18.230  15.510  39.479  0.00  0.00    +0.163 A 
ENDROOT
BRANCH   6   7
ATOM      7  O1  UNL     1     -18.575  16.822  39.635  0.00  0.00    -0.503 OA
ATOM      8  H3  UNL     1     -18.723  17.225  38.765  0.00  0.00    +0.292 HD
ENDBRANCH   6   7
BRANCH   5   9
ATOM      9  O2  UNL     1     -19.375  15.447  37.372  0.00  0.00    -0.501 OA
ATOM     10  H4  UNL     1     -18.776  15.526  36.606  0.00  0.00    +0.292 HD
ENDBRANCH   5   9
BRANCH   4  11
ATOM     11  O3  UNL     1     -18.715  12.859  37.024  0.00  0.00    -0.503 OA
ATOM     12  H5  UNL     1     -19.658  12.639  37.123  0.00  0.00    +0.292 HD
ENDBRANCH   4  11
BRANCH   2  13
ATOM     13  C7  UNL     1     -16.326  12.853  41.335  0.00  0.00    +0.337 C 
ATOM     14  O4  UNL     1     -15.353  12.144  41.156  0.00  0.00    -0.245 OA
BRANCH  13  15
ATOM     15  O5  UNL     1     -16.782  13.118  42.572  0.00  0.00    -0.477 OA
ATOM     16  H6  UNL     1     -16.225  12.554  43.152  0.00  0.00    +0.295 HD
ENDBRANCH  13  15
ENDBRANCH   2  13
TORSDOF 5
ENDMDL
MODEL 8
REMARK VINA RESULT:    -5.199      1.958      3.735
REMARK INTER + INTRA:          -6.169
REMARK INTER:                  -6.113
REMARK INTRA:                  -0.057
REMARK UNBOUND:                -0.059
REMARK  Name = data/mahkota_dewa_dn/results/docking/ligands/pdb/Gallic_acid.pdb
REMARK  5 active torsions:
REMARK  status: ('A' for Active; 'I' for Inactive)
REMARK    1  A    between atoms: C2_2  and  C7_10
REMARK    2  A    between atoms: C4_4  and  O3_9
REMARK    3  A    between atoms: C5_5  and  O2_8
REMARK    4  A    between atoms: C6_6  and  O1_7
REMARK    5  A    between atoms: C7_10  and  O5_12
REMARK                            x       y       z     vdW  Elec       q    Type
REMARK                         _______ _______ _______ _____ _____    ______ ____
ROOT
ATOM      1  C1  UNL     1     -17.278  12.973  39.414  0.00  0.00    +0.064 A 
ATOM      2  C2  UNL     1     -17.130  13.690  40.613  0.00  0.00    +0.066 A 
ATOM      3  C3  UNL     1     -17.737  14.946  40.767  0.00  0.00    +0.064 A 
ATOM      4  C4  UNL     1     -18.484  15.469  39.718  0.00  0.00    +0.163 A 
ATOM      5  C5  UNL     1     -18.632  14.758  38.526  0.00  0.00    +0.201 A 
ATOM      6  C6  UNL     1     -18.030  13.512  38.373  0.00  0.00    +0.163 A 
ENDROOT
BRANCH   6   7
ATOM      7  O1  UNL     1     -18.183  12.829  37.201  0.00  0.00    -0.503 OA
ATOM      8  H3  UNL     1     -19.119  12.826  36.946  0.00  0.00    +0.292 HD
ENDBRANCH   6   7
BRANCH   5   9
ATOM      9  O2  UNL     1     -19.374  15.305  37.516  0.00  0.00    -0.501 OA
ATOM     10  H4  UNL     1     -19.962  14.585  37.217  0.00  0.00    +0.292 HD
ENDBRANCH   5   9
BRANCH   4  11
ATOM     11  O3  UNL     1     -19.098  16.688  39.811  0.00  0.00    -0.503 OA
ATOM     12  H5  UNL     1     -19.211  16.908  40.752  0.00  0.00    +0.292 HD
ENDBRANCH   4  11
BRANCH   2  13
ATOM     13  C7  UNL     1     -16.321  13.077  41.693  0.00  0.00    +0.337 C 
ATOM     14  O4  UNL     1     -16.440  13.297  42.883  0.00  0.00    -0.245 OA
BRANCH  13  15
ATOM     15  O5  UNL     1     -15.398  12.215  41.228  0.00  0.00    -0.477 OA
ATOM     16  H6  UNL     1     -15.764  11.925  40.365  0.00  0.00    +0.295 HD
ENDBRANCH  13  15
ENDBRANCH   2  13
TORSDOF 5
ENDMDL
MODEL 9
REMARK VINA RESULT:    -5.185      1.594      3.048
REMARK INTER + INTRA:          -6.153
REMARK INTER:                  -6.107
REMARK INTRA:                  -0.046
REMARK UNBOUND:                -0.059
REMARK  Name = data/mahkota_dewa_dn/results/docking/ligands/pdb/Gallic_acid.pdb
REMARK  5 active torsions:
REMARK  status: ('A' for Active; 'I' for Inactive)
REMARK    1  A    between atoms: C2_2  and  C7_10
REMARK    2  A    between atoms: C4_4  and  O3_9
REMARK    3  A    between atoms: C5_5  and  O2_8
REMARK    4  A    between atoms: C6_6  and  O1_7
REMARK    5  A    between atoms: C7_10  and  O5_12
REMARK                            x       y       z     vdW  Elec       q    Type
REMARK                         _______ _______ _______ _____ _____    ______ ____
ROOT
ATOM      1  C1  UNL     1     -16.822  13.087  41.108  0.00  0.00    +0.064 A 
ATOM      2  C2  UNL     1     -17.189  14.385  41.501  0.00  0.00    +0.066 A 
ATOM      3  C3  UNL     1     -17.825  15.247  40.595  0.00  0.00    +0.064 A 
ATOM      4  C4  UNL     1     -18.084  14.799  39.305  0.00  0.00    +0.163 A 
ATOM      5  C5  UNL     1     -17.721  13.511  38.912  0.00  0.00    +0.201 A 
ATOM      6  C6  UNL     1     -17.090  12.655  39.811  0.00  0.00    +0.163 A 
ENDROOT
BRANCH   6   7
ATOM      7  O1  UNL     1     -16.740  11.397  39.412  0.00  0.00    -0.503 OA
ATOM      8  H3  UNL     1     -16.114  11.452  38.674  0.00  0.00    +0.292 HD
ENDBRANCH   6   7
BRANCH   5   9
ATOM      9  O2  UNL     1     -17.993  13.105  37.635  0.00  0.00    -0.501 OA
ATOM     10  H4  UNL     1     -18.877  13.468  37.437  0.00  0.00    +0.292 HD
ENDBRANCH   5   9
BRANCH   4  11
ATOM     11  O3  UNL     1     -18.702  15.595  38.379  0.00  0.00    -0.503 OA
ATOM     12  H5  UNL     1     -18.297  16.480  38.410  0.00  0.00    +0.292 HD
ENDBRANCH   4  11
BRANCH   2  13
ATOM     13  C7  UNL     1     -16.883  14.801  42.891  0.00  0.00    +0.337 C 
ATOM     14  O4  UNL     1     -15.853  15.329  43.265  0.00  0.00    -0.245 OA
BRANCH  13  15
ATOM     15  O5  UNL     1     -17.885  14.534  43.747  0.00  0.00    -0.477 OA
ATOM     16  H6  UNL     1     -18.683  14.521  43.177  0.00  0.00    +0.295 HD
ENDBRANCH  13  15
ENDBRANCH   2  13
TORSDOF 5
ENDMDL
