MODEL 1
REMARK VINA RESULT:    -8.685      0.000      0.000
REMARK INTER + INTRA:          -9.925
REMARK INTER:                  -9.700
REMARK INTRA:                  -0.224
REMARK UNBOUND:                -0.224
REMARK  Name = data/mahkota_dewa_dn/results/docking/ligands/pdb/Phalerin.pdb
REMARK  3 active torsions:
REMARK  status: ('A' for Active; 'I' for Inactive)
REMARK    1  A    between atoms: C1_1  and  O1_2
REMARK    2  A    between atoms: O1_2  and  C2_3
REMARK    3  A    between atoms: C9_13  and  C12_17
REMARK                            x       y       z     vdW  Elec       q    Type
REMARK                         _______ _______ _______ _____ _____    ______ ____
ROOT
ATOM      1  C2  UNL     1     -20.690  11.495  35.483  0.00  0.00    +0.180 A 
ATOM      2  C3  UNL     1     -19.827  11.885  36.518  0.00  0.00    +0.109 A 
ATOM      3  C4  UNL     1     -20.355  12.460  37.691  0.00  0.00    +0.146 A 
ATOM      4  C5  UNL     1     -21.731  12.655  37.843  0.00  0.00    +0.096 A 
ATOM      5  C6  UNL     1     -22.552  12.257  36.811  0.00  0.00    +0.173 A 
ATOM      6  C7  UNL     1     -22.051  11.686  35.664  0.00  0.00    +0.208 A 
ATOM      7  O2  UNL     1     -23.039  11.355  34.787  0.00  0.00    -0.449 OA
ATOM      8  C8  UNL     1     -24.212  11.764  35.517  0.00  0.00    +0.467 C 
ATOM      9  O3  UNL     1     -23.908  12.358  36.796  0.00  0.00    -0.452 OA
ATOM     10  O4  UNL     1     -19.576  12.857  38.749  0.00  0.00    -0.454 OA
ATOM     11  C9  UNL     1     -18.212  12.636  38.688  0.00  0.00    +0.139 A 
ATOM     12  C10 UNL     1     -17.583  12.120  37.624  0.00  0.00    +0.098 A 
ATOM     13  C11 UNL     1     -18.359  11.735  36.432  0.00  0.00    +0.197 A 
ATOM     14  O5  UNL     1     -17.766  11.340  35.438  0.00  0.00    -0.287 OA
ENDROOT
BRANCH  11  15
ATOM     15  C12 UNL     1     -17.476  13.055  39.896  0.00  0.00    +0.017 A 
ATOM     16  C13 UNL     1     -16.365  12.318  40.332  0.00  0.00    +0.011 A 
ATOM     17  C14 UNL     1     -15.650  12.706  41.469  0.00  0.00    +0.001 A 
ATOM     18  C15 UNL     1     -16.033  13.840  42.180  0.00  0.00    +0.000 A 
ATOM     19  C16 UNL     1     -17.128  14.589  41.755  0.00  0.00    +0.001 A 
ATOM     20  C17 UNL     1     -17.843  14.201  40.618  0.00  0.00    +0.011 A 
ENDBRANCH  11  15
BRANCH   1  22
ATOM     21  C1  UNL     1     -20.240  11.740  33.243  0.00  0.00    +0.277 C 
ATOM     22  O1  UNL     1     -20.243  10.856  34.363  0.00  0.00    -0.491 OA
ENDBRANCH   1  22
TORSDOF 2
ENDMDL
MODEL 2
REMARK VINA RESULT:    -8.496      1.239      3.077
REMARK INTER + INTRA:          -9.714
REMARK INTER:                  -9.503
REMARK INTRA:                  -0.211
REMARK UNBOUND:                -0.224
REMARK  Name = data/mahkota_dewa_dn/results/docking/ligands/pdb/Phalerin.pdb
REMARK  3 active torsions:
REMARK  status: ('A' for Active; 'I' for Inactive)
REMARK    1  A    between atoms: C1_1  and  O1_2
REMARK    2  A    between atoms: O1_2  and  C2_3
REMARK    3  A    between atoms: C9_13  and  C12_17
REMARK                            x       y       z     vdW  Elec       q    Type
REMARK                         _______ _______ _______ _____ _____    ______ ____
ROOT
ATOM      1  C2  UNL     1     -22.112  11.827  35.916  0.00  0.00    +0.180 A 
ATOM      2  C3  UNL     1     -21.185  12.030  36.950  0.00  0.00    +0.109 A 
ATOM      3  C4  UNL     1     -19.815  12.154  36.646  0.00  0.00    +0.146 A 
ATOM      4  C5  UNL     1     -19.357  12.074  35.327  0.00  0.00    +0.096 A 
ATOM      5  C6  UNL     1     -20.293  11.880  34.336  0.00  0.00    +0.173 A 
ATOM      6  C7  UNL     1     -21.635  11.765  34.617  0.00  0.00    +0.208 A 
ATOM      7  O2  UNL     1     -22.378  11.596  33.488  0.00  0.00    -0.449 OA
ATOM      8  C8  UNL     1     -21.358  11.634  32.471  0.00  0.00    +0.467 C 
ATOM      9  O3  UNL     1     -20.027  11.792  33.005  0.00  0.00    -0.452 OA
ATOM     10  O4  UNL     1     -18.850  12.363  37.601  0.00  0.00    -0.454 OA
ATOM     11  C9  UNL     1     -19.243  12.513  38.918  0.00  0.00    +0.139 A 
ATOM     12  C10 UNL     1     -20.508  12.395  39.342  0.00  0.00    +0.098 A 
ATOM     13  C11 UNL     1     -21.580  12.105  38.372  0.00  0.00    +0.197 A 
ATOM     14  O5  UNL     1     -22.718  11.921  38.780  0.00  0.00    -0.287 OA
ENDROOT
BRANCH  11  15
ATOM     15  C12 UNL     1     -18.134  12.782  39.854  0.00  0.00    +0.017 A 
ATOM     16  C13 UNL     1     -18.238  13.826  40.785  0.00  0.00    +0.011 A 
ATOM     17  C14 UNL     1     -17.201  14.088  41.685  0.00  0.00    +0.001 A 
ATOM     18  C15 UNL     1     -16.050  13.305  41.670  0.00  0.00    +0.000 A 
ATOM     19  C16 UNL     1     -15.935  12.258  40.758  0.00  0.00    +0.001 A 
ATOM     20  C17 UNL     1     -16.972  11.996  39.858  0.00  0.00    +0.011 A 
ENDBRANCH  11  15
BRANCH   1  22
ATOM     21  C1  UNL     1     -23.950  10.452  36.025  0.00  0.00    +0.277 C 
ATOM     22  O1  UNL     1     -23.458  11.786  36.142  0.00  0.00    -0.491 OA
ENDBRANCH   1  22
TORSDOF 2
ENDMDL
MODEL 3
REMARK VINA RESULT:    -7.993      2.052      7.229
REMARK INTER + INTRA:          -9.152
REMARK INTER:                  -8.901
REMARK INTRA:                  -0.251
REMARK UNBOUND:                -0.224
REMARK  Name = data/mahkota_dewa_dn/results/docking/ligands/pdb/Phalerin.pdb
REMARK  3 active torsions:
REMARK  status: ('A' for Active; 'I' for Inactive)
REMARK    1  A    between atoms: C1_1  and  O1_2
REMARK    2  A    between atoms: O1_2  and  C2_3
REMARK    3  A    between atoms: C9_13  and  C12_17
REMARK                            x       y       z     vdW  Elec       q    Type
REMARK                         _______ _______ _______ _____ _____    ______ ____
ROOT
ATOM      1  C2  UNL     1     -17.388  13.396  40.303  0.00  0.00    +0.180 A 
ATOM      2  C3  UNL     1     -18.470  13.208  39.429  0.00  0.00    +0.109 A 
ATOM      3  C4  UNL     1     -18.540  12.039  38.645  0.00  0.00    +0.146 A 
ATOM      4  C5  UNL     1     -17.546  11.059  38.718  0.00  0.00    +0.096 A 
ATOM      5  C6  UNL     1     -16.501  11.272  39.590  0.00  0.00    +0.173 A 
ATOM      6  C7  UNL     1     -16.423  12.404  40.367  0.00  0.00    +0.208 A 
ATOM      7  O2  UNL     1     -15.319  12.398  41.165  0.00  0.00    -0.449 OA
ATOM      8  C8  UNL     1     -14.725  11.134  40.814  0.00  0.00    +0.467 C 
ATOM      9  O3  UNL     1     -15.460  10.422  39.797  0.00  0.00    -0.452 OA
ATOM     10  O4  UNL     1     -19.571  11.779  37.776  0.00  0.00    -0.454 OA
ATOM     11  C9  UNL     1     -20.618  12.680  37.701  0.00  0.00    +0.139 A 
ATOM     12  C10 UNL     1     -20.661  13.837  38.374  0.00  0.00    +0.098 A 
ATOM     13  C11 UNL     1     -19.553  14.202  39.273  0.00  0.00    +0.197 A 
ATOM     14  O5  UNL     1     -19.565  15.295  39.821  0.00  0.00    -0.287 OA
ENDROOT
BRANCH  11  15
ATOM     15  C12 UNL     1     -21.694  12.282  36.773  0.00  0.00    +0.017 A 
ATOM     16  C13 UNL     1     -23.031  12.310  37.196  0.00  0.00    +0.011 A 
ATOM     17  C14 UNL     1     -24.064  11.945  36.327  0.00  0.00    +0.001 A 
ATOM     18  C15 UNL     1     -23.773  11.554  35.023  0.00  0.00    +0.000 A 
ATOM     19  C16 UNL     1     -22.451  11.528  34.585  0.00  0.00    +0.001 A 
ATOM     20  C17 UNL     1     -21.418  11.894  35.453  0.00  0.00    +0.011 A 
ENDBRANCH  11  15
BRANCH   1  22
ATOM     21  C1  UNL     1     -17.671  14.089  42.475  0.00  0.00    +0.277 C 
ATOM     22  O1  UNL     1     -17.312  14.467  41.148  0.00  0.00    -0.491 OA
ENDBRANCH   1  22
TORSDOF 2
ENDMDL
MODEL 4
REMARK VINA RESULT:    -7.880      1.943      7.187
REMARK INTER + INTRA:          -9.026
REMARK INTER:                  -8.812
REMARK INTRA:                  -0.214
REMARK UNBOUND:                -0.224
REMARK  Name = data/mahkota_dewa_dn/results/docking/ligands/pdb/Phalerin.pdb
REMARK  3 active torsions:
REMARK  status: ('A' for Active; 'I' for Inactive)
REMARK    1  A    between atoms: C1_1  and  O1_2
REMARK    2  A    between atoms: O1_2  and  C2_3
REMARK    3  A    between atoms: C9_13  and  C12_17
REMARK                            x       y       z     vdW  Elec       q    Type
REMARK                         _______ _______ _______ _____ _____    ______ ____
ROOT
ATOM      1  C2  UNL     1     -17.964  12.888  40.063  0.00  0.00    +0.180 A 
ATOM      2  C3  UNL     1     -18.651  12.725  38.851  0.00  0.00    +0.109 A 
ATOM      3  C4  UNL     1     -18.121  11.881  37.855  0.00  0.00    +0.146 A 
ATOM      4  C5  UNL     1     -16.915  11.202  38.050  0.00  0.00    +0.096 A 
ATOM      5  C6  UNL     1     -16.269  11.379  39.253  0.00  0.00    +0.173 A 
ATOM      6  C7  UNL     1     -16.778  12.193  40.238  0.00  0.00    +0.208 A 
ATOM      7  O2  UNL     1     -15.986  12.207  41.346  0.00  0.00    -0.449 OA
ATOM      8  C8  UNL     1     -14.937  11.302  40.954  0.00  0.00    +0.467 C 
ATOM      9  O3  UNL     1     -15.099  10.788  39.616  0.00  0.00    -0.452 OA
ATOM     10  O4  UNL     1     -18.739  11.664  36.648  0.00  0.00    -0.454 OA
ATOM     11  C9  UNL     1     -19.966  12.258  36.415  0.00  0.00    +0.139 A 
ATOM     12  C10 UNL     1     -20.566  13.098  37.268  0.00  0.00    +0.098 A 
ATOM     13  C11 UNL     1     -19.920  13.421  38.552  0.00  0.00    +0.197 A 
ATOM     14  O5  UNL     1     -20.438  14.250  39.288  0.00  0.00    -0.287 OA
ENDROOT
BRANCH  11  15
ATOM     15  C12 UNL     1     -20.564  11.920  35.109  0.00  0.00    +0.017 A 
ATOM     16  C13 UNL     1     -19.745  11.763  33.981  0.00  0.00    +0.011 A 
ATOM     17  C14 UNL     1     -20.294  11.434  32.739  0.00  0.00    +0.001 A 
ATOM     18  C15 UNL     1     -21.669  11.252  32.610  0.00  0.00    +0.000 A 
ATOM     19  C16 UNL     1     -22.495  11.395  33.722  0.00  0.00    +0.001 A 
ATOM     20  C17 UNL     1     -21.946  11.724  34.965  0.00  0.00    +0.011 A 
ENDBRANCH  11  15
BRANCH   1  22
ATOM     21  C1  UNL     1     -17.735  14.833  41.264  0.00  0.00    +0.277 C 
ATOM     22  O1  UNL     1     -18.472  13.624  41.095  0.00  0.00    -0.491 OA
ENDBRANCH   1  22
TORSDOF 2
ENDMDL
MODEL 5
REMARK VINA RESULT:    -7.794      2.107      6.807
REMARK INTER + INTRA:          -8.929
REMARK INTER:                  -8.688
REMARK INTRA:                  -0.242
REMARK UNBOUND:                -0.224
REMARK  Name = data/mahkota_dewa_dn/results/docking/ligands/pdb/Phalerin.pdb
REMARK  3 active torsions:
REMARK  status: ('A' for Active; 'I' for Inactive)
REMARK    1  A    between atoms: C1_1  and  O1_2
REMARK    2  A    between atoms: O1_2  and  C2_3
REMARK    3  A    between atoms: C9_13  and  C12_17
REMARK                            x       y       z     vdW  Elec       q    Type
REMARK                         _______ _______ _______ _____ _____    ______ ____
ROOT
ATOM      1  C2  UNL     1     -17.828  11.852  39.464  0.00  0.00    +0.180 A 
ATOM      2  C3  UNL     1     -18.496  11.700  38.240  0.00  0.00    +0.109 A 
ATOM      3  C4  UNL     1     -19.098  12.816  37.628  0.00  0.00    +0.146 A 
ATOM      4  C5  UNL     1     -19.047  14.081  38.222  0.00  0.00    +0.096 A 
ATOM      5  C6  UNL     1     -18.379  14.198  39.420  0.00  0.00    +0.173 A 
ATOM      6  C7  UNL     1     -17.779  13.118  40.026  0.00  0.00    +0.208 A 
ATOM      7  O2  UNL     1     -17.163  13.465  41.190  0.00  0.00    -0.449 OA
ATOM      8  C8  UNL     1     -17.429  14.880  41.239  0.00  0.00    +0.467 C 
ATOM      9  O3  UNL     1     -18.220  15.349  40.127  0.00  0.00    -0.452 OA
ATOM     10  O4  UNL     1     -19.761  12.749  36.427  0.00  0.00    -0.454 OA
ATOM     11  C9  UNL     1     -19.795  11.539  35.757  0.00  0.00    +0.139 A 
ATOM     12  C10 UNL     1     -19.283  10.400  36.239  0.00  0.00    +0.098 A 
ATOM     13  C11 UNL     1     -18.617  10.396  37.553  0.00  0.00    +0.197 A 
ATOM     14  O5  UNL     1     -18.223   9.336  38.019  0.00  0.00    -0.287 OA
ENDROOT
BRANCH  11  15
ATOM     15  C12 UNL     1     -20.489  11.588  34.455  0.00  0.00    +0.017 A 
ATOM     16  C13 UNL     1     -21.890  11.636  34.408  0.00  0.00    +0.011 A 
ATOM     17  C14 UNL     1     -22.563  11.691  33.184  0.00  0.00    +0.001 A 
ATOM     18  C15 UNL     1     -21.843  11.707  31.993  0.00  0.00    +0.000 A 
ATOM     19  C16 UNL     1     -20.451  11.670  32.022  0.00  0.00    +0.001 A 
ATOM     20  C17 UNL     1     -19.778  11.614  33.246  0.00  0.00    +0.011 A 
ENDBRANCH  11  15
BRANCH   1  22
ATOM     21  C1  UNL     1     -15.752  10.935  39.820  0.00  0.00    +0.277 C 
ATOM     22  O1  UNL     1     -17.154  10.824  40.059  0.00  0.00    -0.491 OA
ENDBRANCH   1  22
TORSDOF 2
ENDMDL
MODEL 6
REMARK VINA RESULT:    -7.501      1.997      6.780
REMARK INTER + INTRA:          -8.602
REMARK INTER:                  -8.386
REMARK INTRA:                  -0.216
REMARK UNBOUND:                -0.224
REMARK  Name = data/mahkota_dewa_dn/results/docking/ligands/pdb/Phalerin.pdb
REMARK  3 active torsions:
REMARK  status: ('A' for Active; 'I' for Inactive)
REMARK    1  A    between atoms: C1_1  and  O1_2
REMARK    2  A    between atoms: O1_2  and  C2_3
REMARK    3  A    between atoms: C9_13  and  C12_17
REMARK                            x       y       z     vdW  Elec       q    Type
REMARK                         _______ _______ _______ _____ _____    ______ ____
ROOT
ATOM      1  C2  UNL     1     -16.797  12.093  39.784  0.00  0.00    +0.180 A 
ATOM      2  C3  UNL     1     -17.941  11.951  38.985  0.00  0.00    +0.109 A 
ATOM      3  C4  UNL     1     -19.070  12.756  39.231  0.00  0.00    +0.146 A 
ATOM      4  C5  UNL     1     -19.076  13.697  40.265  0.00  0.00    +0.096 A 
ATOM      5  C6  UNL     1     -17.935  13.816  41.027  0.00  0.00    +0.173 A 
ATOM      6  C7  UNL     1     -16.822  13.042  40.794  0.00  0.00    +0.208 A 
ATOM      7  O2  UNL     1     -15.807  13.338  41.653  0.00  0.00    -0.449 OA
ATOM      8  C8  UNL     1     -16.401  14.390  42.438  0.00  0.00    +0.467 C 
ATOM      9  O3  UNL     1     -17.761  14.685  42.059  0.00  0.00    -0.452 OA
ATOM     10  O4  UNL     1     -20.222  12.682  38.487  0.00  0.00    -0.454 OA
ATOM     11  C9  UNL     1     -20.261  11.815  37.410  0.00  0.00    +0.139 A 
ATOM     12  C10 UNL     1     -19.266  10.980  37.084  0.00  0.00    +0.098 A 
ATOM     13  C11 UNL     1     -18.030  10.967  37.885  0.00  0.00    +0.197 A 
ATOM     14  O5  UNL     1     -17.161  10.146  37.627  0.00  0.00    -0.287 OA
ENDROOT
BRANCH  11  15
ATOM     15  C12 UNL     1     -21.525  11.849  36.650  0.00  0.00    +0.017 A 
ATOM     16  C13 UNL     1     -21.510  11.698  35.256  0.00  0.00    +0.011 A 
ATOM     17  C14 UNL     1     -22.699  11.718  34.521  0.00  0.00    +0.001 A 
ATOM     18  C15 UNL     1     -23.919  11.883  35.173  0.00  0.00    +0.000 A 
ATOM     19  C16 UNL     1     -23.952  12.024  36.558  0.00  0.00    +0.001 A 
ATOM     20  C17 UNL     1     -22.763  12.004  37.293  0.00  0.00    +0.011 A 
ENDBRANCH  11  15
BRANCH   1  22
ATOM     21  C1  UNL     1     -15.430  10.406  40.537  0.00  0.00    +0.277 C 
ATOM     22  O1  UNL     1     -15.645  11.401  39.538  0.00  0.00    -0.491 OA
ENDBRANCH   1  22
TORSDOF 2
ENDMDL
MODEL 7
REMARK VINA RESULT:    -7.272      3.231      4.025
REMARK INTER + INTRA:          -8.346
REMARK INTER:                  -8.144
REMARK INTRA:                  -0.202
REMARK UNBOUND:                -0.224
REMARK  Name = data/mahkota_dewa_dn/results/docking/ligands/pdb/Phalerin.pdb
REMARK  3 active torsions:
REMARK  status: ('A' for Active; 'I' for Inactive)
REMARK    1  A    between atoms: C1_1  and  O1_2
REMARK    2  A    between atoms: O1_2  and  C2_3
REMARK    3  A    between atoms: C9_13  and  C12_17
REMARK                            x       y       z     vdW  Elec       q    Type
REMARK                         _______ _______ _______ _____ _____    ______ ____
ROOT
ATOM      1  C2  UNL     1     -18.385   8.626  36.197  0.00  0.00    +0.180 A 
ATOM      2  C3  UNL     1     -18.115   9.691  37.070  0.00  0.00    +0.109 A 
ATOM      3  C4  UNL     1     -18.314   9.527  38.455  0.00  0.00    +0.146 A 
ATOM      4  C5  UNL     1     -18.781   8.318  38.980  0.00  0.00    +0.096 A 
ATOM      5  C6  UNL     1     -19.030   7.292  38.097  0.00  0.00    +0.173 A 
ATOM      6  C7  UNL     1     -18.833   7.434  36.743  0.00  0.00    +0.208 A 
ATOM      7  O2  UNL     1     -19.126   6.290  36.064  0.00  0.00    -0.449 OA
ATOM      8  C8  UNL     1     -19.511   5.414  37.140  0.00  0.00    +0.467 C 
ATOM      9  O3  UNL     1     -19.473   6.050  38.434  0.00  0.00    -0.452 OA
ATOM     10  O4  UNL     1     -18.064  10.518  39.372  0.00  0.00    -0.454 OA
ATOM     11  C9  UNL     1     -17.542  11.719  38.925  0.00  0.00    +0.139 A 
ATOM     12  C10 UNL     1     -17.329  12.009  37.635  0.00  0.00    +0.098 A 
ATOM     13  C11 UNL     1     -17.640  11.009  36.599  0.00  0.00    +0.197 A 
ATOM     14  O5  UNL     1     -17.517  11.313  35.421  0.00  0.00    -0.287 OA
ENDROOT
BRANCH  11  15
ATOM     15  C12 UNL     1     -17.265  12.695  39.996  0.00  0.00    +0.017 A 
ATOM     16  C13 UNL     1     -18.013  13.879  40.076  0.00  0.00    +0.011 A 
ATOM     17  C14 UNL     1     -17.771  14.811  41.090  0.00  0.00    +0.001 A 
ATOM     18  C15 UNL     1     -16.782  14.567  42.039  0.00  0.00    +0.000 A 
ATOM     19  C16 UNL     1     -16.037  13.392  41.979  0.00  0.00    +0.001 A 
ATOM     20  C17 UNL     1     -16.279  12.460  40.966  0.00  0.00    +0.011 A 
ENDBRANCH  11  15
BRANCH   1  22
ATOM     21  C1  UNL     1     -19.343   8.828  34.119  0.00  0.00    +0.277 C 
ATOM     22  O1  UNL     1     -18.130   8.700  34.858  0.00  0.00    -0.491 OA
ENDBRANCH   1  22
TORSDOF 2
ENDMDL
MODEL 8
REMARK VINA RESULT:    -7.098      6.296      8.938
REMARK INTER + INTRA:          -8.152
REMARK INTER:                  -7.956
REMARK INTRA:                  -0.196
REMARK UNBOUND:                -0.224
REMARK  Name = data/mahkota_dewa_dn/results/docking/ligands/pdb/Phalerin.pdb
REMARK  3 active torsions:
REMARK  status: ('A' for Active; 'I' for Inactive)
REMARK    1  A    between atoms: C1_1  and  O1_2
REMARK    2  A    between atoms: O1_2  and  C2_3
REMARK    3  A    between atoms: C9_13  and  C12_17
REMARK                            x       y       z     vdW  Elec       q    Type
REMARK                         _______ _______ _______ _____ _____    ______ ____
ROOT
ATOM      1  C2  UNL     1     -14.782   6.225  43.180  0.00  0.00    +0.180 A 
ATOM      2  C3  UNL     1     -15.108   7.440  42.558  0.00  0.00    +0.109 A 
ATOM      3  C4  UNL     1     -16.282   8.123  42.929  0.00  0.00    +0.146 A 
ATOM      4  C5  UNL     1     -17.138   7.609  43.909  0.00  0.00    +0.096 A 
ATOM      5  C6  UNL     1     -16.786   6.418  44.504  0.00  0.00    +0.173 A 
ATOM      6  C7  UNL     1     -15.639   5.744  44.157  0.00  0.00    +0.208 A 
ATOM      7  O2  UNL     1     -15.482   4.601  44.881  0.00  0.00    -0.449 OA
ATOM      8  C8  UNL     1     -16.645   4.643  45.729  0.00  0.00    +0.467 C 
ATOM      9  O3  UNL     1     -17.491   5.785  45.479  0.00  0.00    -0.452 OA
ATOM     10  O4  UNL     1     -16.663   9.320  42.374  0.00  0.00    -0.454 OA
ATOM     11  C9  UNL     1     -15.829   9.913  41.443  0.00  0.00    +0.139 A 
ATOM     12  C10 UNL     1     -14.699   9.358  40.988  0.00  0.00    +0.098 A 
ATOM     13  C11 UNL     1     -14.272   8.044  41.498  0.00  0.00    +0.197 A 
ATOM     14  O5  UNL     1     -13.281   7.511  41.018  0.00  0.00    -0.287 OA
ENDROOT
BRANCH  11  15
ATOM     15  C12 UNL     1     -16.308  11.218  40.946  0.00  0.00    +0.017 A 
ATOM     16  C13 UNL     1     -16.215  12.356  41.760  0.00  0.00    +0.011 A 
ATOM     17  C14 UNL     1     -16.654  13.601  41.303  0.00  0.00    +0.001 A 
ATOM     18  C15 UNL     1     -17.186  13.725  40.022  0.00  0.00    +0.000 A 
ATOM     19  C16 UNL     1     -17.277  12.607  39.197  0.00  0.00    +0.001 A 
ATOM     20  C17 UNL     1     -16.837  11.361  39.654  0.00  0.00    +0.011 A 
ENDBRANCH  11  15
BRANCH   1  22
ATOM     21  C1  UNL     1     -13.859   4.399  42.136  0.00  0.00    +0.277 C 
ATOM     22  O1  UNL     1     -13.615   5.564  42.921  0.00  0.00    -0.491 OA
ENDBRANCH   1  22
TORSDOF 2
ENDMDL
MODEL 9
REMARK VINA RESULT:    -6.761      4.773      7.323
REMARK INTER + INTRA:          -7.776
REMARK INTER:                  -7.562
REMARK INTRA:                  -0.215
REMARK UNBOUND:                -0.224
REMARK  Name = data/mahkota_dewa_dn/results/docking/ligands/pdb/Phalerin.pdb
REMARK  3 active torsions:
REMARK  status: ('A' for Active; 'I' for Inactive)
REMARK    1  A    between atoms: C1_1  and  O1_2
REMARK    2  A    between atoms: O1_2  and  C2_3
REMARK    3  A    between atoms: C9_13  and  C12_17
REMARK                            x       y       z     vdW  Elec       q    Type
REMARK                         _______ _______ _______ _____ _____    ______ ____
ROOT
ATOM      1  C2  UNL     1     -17.245   7.156  41.038  0.00  0.00    +0.180 A 
ATOM      2  C3  UNL     1     -17.495   8.489  40.677  0.00  0.00    +0.109 A 
ATOM      3  C4  UNL     1     -16.594   9.500  41.065  0.00  0.00    +0.146 A 
ATOM      4  C5  UNL     1     -15.450   9.201  41.812  0.00  0.00    +0.096 A 
ATOM      5  C6  UNL     1     -15.231   7.883  42.144  0.00  0.00    +0.173 A 
ATOM      6  C7  UNL     1     -16.097   6.884  41.765  0.00  0.00    +0.208 A 
ATOM      7  O2  UNL     1     -15.677   5.659  42.187  0.00  0.00    -0.449 OA
ATOM      8  C8  UNL     1     -14.447   5.997  42.855  0.00  0.00    +0.467 C 
ATOM      9  O3  UNL     1     -14.168   7.413  42.851  0.00  0.00    -0.452 OA
ATOM     10  O4  UNL     1     -16.766  10.824  40.742  0.00  0.00    -0.454 OA
ATOM     11  C9  UNL     1     -17.845  11.179  39.953  0.00  0.00    +0.139 A 
ATOM     12  C10 UNL     1     -18.784  10.320  39.538  0.00  0.00    +0.098 A 
ATOM     13  C11 UNL     1     -18.690   8.897  39.908  0.00  0.00    +0.197 A 
ATOM     14  O5  UNL     1     -19.594   8.137  39.590  0.00  0.00    -0.287 OA
ENDROOT
BRANCH  11  15
ATOM     15  C12 UNL     1     -17.908  12.616  39.625  0.00  0.00    +0.017 A 
ATOM     16  C13 UNL     1     -18.162  13.025  38.308  0.00  0.00    +0.011 A 
ATOM     17  C14 UNL     1     -18.235  14.382  37.981  0.00  0.00    +0.001 A 
ATOM     18  C15 UNL     1     -18.062  15.347  38.970  0.00  0.00    +0.000 A 
ATOM     19  C16 UNL     1     -17.818  14.958  40.285  0.00  0.00    +0.001 A 
ATOM     20  C17 UNL     1     -17.745  13.601  40.611  0.00  0.00    +0.011 A 
ENDBRANCH  11  15
BRANCH   1  22
ATOM     21  C1  UNL     1     -18.850   5.645  41.685  0.00  0.00    +0.277 C 
ATOM     22  O1  UNL     1     -18.036   6.126  40.616  0.00  0.00    -0.491 OA
ENDBRANCH   1  22
TORSDOF 2
ENDMDL
