MODEL 1
REMARK VINA RESULT:    -7.877      0.000      0.000
REMARK INTER + INTRA:          -9.384
REMARK INTER:                  -9.259
REMARK INTRA:                  -0.125
REMARK UNBOUND:                -0.125
REMARK  Name = data/mahkota_dewa_dn/results/docking/ligands/pdb/Kaempferol.pdb
REMARK  5 active torsions:
REMARK  status: ('A' for Active; 'I' for Inactive)
REMARK    1  A    between atoms: C3_3  and  O6_21
REMARK    2  A    between atoms: C6_6  and  C7_7
REMARK    3  A    between atoms: C8_8  and  O5_20
REMARK    4  A    between atoms: C11_12  and  O4_19
REMARK    5  A    between atoms: C13_14  and  O3_18
REMARK                            x       y       z     vdW  Elec       q    Type
REMARK                         _______ _______ _______ _____ _____    ______ ____
ROOT
ATOM      1  C7  UNL     1     -17.001  12.104  40.599  0.00  0.00    +0.181 A 
ATOM      2  C8  UNL     1     -16.785  13.334  41.101  0.00  0.00    +0.208 A 
ATOM      3  C9  UNL     1     -17.741  14.414  40.764  0.00  0.00    +0.238 A 
ATOM      4  O1  UNL     1     -17.580  15.550  41.208  0.00  0.00    -0.283 OA
ATOM      5  C10 UNL     1     -18.869  14.074  39.895  0.00  0.00    +0.109 A 
ATOM      6  C11 UNL     1     -19.819  15.026  39.515  0.00  0.00    +0.135 A 
ATOM      7  C12 UNL     1     -20.876  14.660  38.685  0.00  0.00    +0.091 A 
ATOM      8  C13 UNL     1     -20.975  13.344  38.242  0.00  0.00    +0.124 A 
ATOM      9  C14 UNL     1     -20.035  12.387  38.615  0.00  0.00    +0.092 A 
ATOM     10  C15 UNL     1     -18.978  12.760  39.447  0.00  0.00    +0.147 A 
ATOM     11  O2  UNL     1     -18.081  11.778  39.786  0.00  0.00    -0.451 OA
ENDROOT
BRANCH   1  17
ATOM     12  C1  UNL     1     -14.768  11.000  40.508  0.00  0.00    +0.015 A 
ATOM     13  C2  UNL     1     -13.912   9.930  40.784  0.00  0.00    +0.046 A 
ATOM     14  C3  UNL     1     -14.403   8.806  41.435  0.00  0.00    +0.117 A 
ATOM     15  C4  UNL     1     -15.737   8.734  41.819  0.00  0.00    +0.046 A 
ATOM     16  C5  UNL     1     -16.592   9.806  41.543  0.00  0.00    +0.015 A 
ATOM     17  C6  UNL     1     -16.122  10.949  40.877  0.00  0.00    +0.021 A 
BRANCH  14  18
ATOM     18  O6  UNL     1     -13.534   7.786  41.684  0.00  0.00    -0.507 OA
ATOM     19  H10 UNL     1     -13.951   6.952  41.411  0.00  0.00    +0.292 HD
ENDBRANCH  14  18
ENDBRANCH   1  17
BRANCH   8  20
ATOM     20  O3  UNL     1     -22.025  13.027  37.431  0.00  0.00    -0.507 OA
ATOM     21  H7  UNL     1     -22.483  12.248  37.786  0.00  0.00    +0.292 HD
ENDBRANCH   8  20
BRANCH   6  22
ATOM     22  O4  UNL     1     -19.771  16.331  39.920  0.00  0.00    -0.506 OA
ATOM     23  H8  UNL     1     -18.835  16.631  39.904  0.00  0.00    +0.292 HD
ENDBRANCH   6  22
BRANCH   2  24
ATOM     24  O5  UNL     1     -15.731  13.665  41.933  0.00  0.00    -0.501 OA
ATOM     25  H9  UNL     1     -15.336  14.473  41.543  0.00  0.00    +0.292 HD
ENDBRANCH   2  24
TORSDOF 5
ENDMDL
MODEL 2
REMARK VINA RESULT:    -7.811      1.836      6.409
REMARK INTER + INTRA:          -9.305
REMARK INTER:                  -9.241
REMARK INTRA:                  -0.065
REMARK UNBOUND:                -0.125
REMARK  Name = data/mahkota_dewa_dn/results/docking/ligands/pdb/Kaempferol.pdb
REMARK  5 active torsions:
REMARK  status: ('A' for Active; 'I' for Inactive)
REMARK    1  A    between atoms: C3_3  and  O6_21
REMARK    2  A    between atoms: C6_6  and  C7_7
REMARK    3  A    between atoms: C8_8  and  O5_20
REMARK    4  A    between atoms: C11_12  and  O4_19
REMARK    5  A    between atoms: C13_14  and  O3_18
REMARK                            x       y       z     vdW  Elec       q    Type
REMARK                         _______ _______ _______ _____ _____    ______ ____
ROOT
ATOM      1  C7  UNL     1     -19.625  12.672  38.693  0.00  0.00    +0.181 A 
ATOM      2  C8  UNL     1     -19.588  13.723  39.533  0.00  0.00    +0.208 A 
ATOM      3  C9  UNL     1     -18.408  13.884  40.415  0.00  0.00    +0.238 A 
ATOM      4  O1  UNL     1     -18.336  14.834  41.192  0.00  0.00    -0.283 OA
ATOM      5  C10 UNL     1     -17.350  12.877  40.320  0.00  0.00    +0.109 A 
ATOM      6  C11 UNL     1     -16.203  12.937  41.117  0.00  0.00    +0.135 A 
ATOM      7  C12 UNL     1     -15.221  11.957  40.996  0.00  0.00    +0.091 A 
ATOM      8  C13 UNL     1     -15.393  10.924  40.079  0.00  0.00    +0.124 A 
ATOM      9  C14 UNL     1     -16.531  10.854  39.280  0.00  0.00    +0.092 A 
ATOM     10  C15 UNL     1     -17.512  11.839  39.406  0.00  0.00    +0.147 A 
ATOM     11  O2  UNL     1     -18.612  11.724  38.594  0.00  0.00    -0.451 OA
ENDROOT
BRANCH   1  17
ATOM     12  C1  UNL     1     -20.475  12.151  36.408  0.00  0.00    +0.015 A 
ATOM     13  C2  UNL     1     -21.515  11.884  35.513  0.00  0.00    +0.046 A 
ATOM     14  C3  UNL     1     -22.827  11.878  35.966  0.00  0.00    +0.117 A 
ATOM     15  C4  UNL     1     -23.120  12.131  37.301  0.00  0.00    +0.046 A 
ATOM     16  C5  UNL     1     -22.078  12.396  38.196  0.00  0.00    +0.015 A 
ATOM     17  C6  UNL     1     -20.743  12.419  37.760  0.00  0.00    +0.021 A 
BRANCH  14  18
ATOM     18  O6  UNL     1     -23.811  11.613  35.060  0.00  0.00    -0.507 OA
ATOM     19  H10 UNL     1     -23.994  10.659  35.071  0.00  0.00    +0.292 HD
ENDBRANCH  14  18
ENDBRANCH   1  17
BRANCH   8  20
ATOM     20  O3  UNL     1     -14.408   9.985  39.992  0.00  0.00    -0.507 OA
ATOM     21  H7  UNL     1     -14.798   9.099  40.074  0.00  0.00    +0.292 HD
ENDBRANCH   8  20
BRANCH   6  22
ATOM     22  O4  UNL     1     -15.983  13.928  42.033  0.00  0.00    -0.506 OA
ATOM     23  H8  UNL     1     -15.020  14.128  42.054  0.00  0.00    +0.292 HD
ENDBRANCH   6  22
BRANCH   2  24
ATOM     24  O5  UNL     1     -20.575  14.688  39.622  0.00  0.00    -0.501 OA
ATOM     25  H9  UNL     1     -21.349  14.233  40.015  0.00  0.00    +0.292 HD
ENDBRANCH   2  24
TORSDOF 5
ENDMDL
MODEL 3
REMARK VINA RESULT:    -7.719      2.439      6.307
REMARK INTER + INTRA:          -9.198
REMARK INTER:                  -9.045
REMARK INTRA:                  -0.153
REMARK UNBOUND:                -0.125
REMARK  Name = data/mahkota_dewa_dn/results/docking/ligands/pdb/Kaempferol.pdb
REMARK  5 active torsions:
REMARK  status: ('A' for Active; 'I' for Inactive)
REMARK    1  A    between atoms: C3_3  and  O6_21
REMARK    2  A    between atoms: C6_6  and  C7_7
REMARK    3  A    between atoms: C8_8  and  O5_20
REMARK    4  A    between atoms: C11_12  and  O4_19
REMARK    5  A    between atoms: C13_14  and  O3_18
REMARK                            x       y       z     vdW  Elec       q    Type
REMARK                         _______ _______ _______ _____ _____    ______ ____
ROOT
ATOM      1  C7  UNL     1     -19.384  12.855  37.765  0.00  0.00    +0.181 A 
ATOM      2  C8  UNL     1     -19.772  13.953  38.441  0.00  0.00    +0.208 A 
ATOM      3  C9  UNL     1     -18.990  14.364  39.630  0.00  0.00    +0.238 A 
ATOM      4  O1  UNL     1     -19.310  15.364  40.271  0.00  0.00    -0.283 OA
ATOM      5  C10 UNL     1     -17.838  13.540  40.001  0.00  0.00    +0.109 A 
ATOM      6  C11 UNL     1     -17.045  13.842  41.112  0.00  0.00    +0.135 A 
ATOM      7  C12 UNL     1     -15.959  13.030  41.430  0.00  0.00    +0.091 A 
ATOM      8  C13 UNL     1     -15.674  11.924  40.636  0.00  0.00    +0.124 A 
ATOM      9  C14 UNL     1     -16.457  11.614  39.527  0.00  0.00    +0.092 A 
ATOM     10  C15 UNL     1     -17.544  12.431  39.213  0.00  0.00    +0.147 A 
ATOM     11  O2  UNL     1     -18.282  12.082  38.109  0.00  0.00    -0.451 OA
ENDROOT
BRANCH   1  17
ATOM     12  C1  UNL     1     -19.372  12.223  35.353  0.00  0.00    +0.015 A 
ATOM     13  C2  UNL     1     -20.002  11.733  34.206  0.00  0.00    +0.046 A 
ATOM     14  C3  UNL     1     -21.342  11.371  34.259  0.00  0.00    +0.117 A 
ATOM     15  C4  UNL     1     -22.063  11.488  35.441  0.00  0.00    +0.046 A 
ATOM     16  C5  UNL     1     -21.430  11.978  36.589  0.00  0.00    +0.015 A 
ATOM     17  C6  UNL     1     -20.080  12.360  36.558  0.00  0.00    +0.021 A 
BRANCH  14  18
ATOM     18  O6  UNL     1     -21.918  10.899  33.117  0.00  0.00    -0.507 OA
ATOM     19  H10 UNL     1     -21.226  10.504  32.562  0.00  0.00    +0.292 HD
ENDBRANCH  14  18
ENDBRANCH   1  17
BRANCH   8  20
ATOM     20  O3  UNL     1     -14.601  11.155  40.983  0.00  0.00    -0.507 OA
ATOM     21  H7  UNL     1     -14.388  10.552  40.252  0.00  0.00    +0.292 HD
ENDBRANCH   8  20
BRANCH   6  22
ATOM     22  O4  UNL     1     -17.278  14.915  41.926  0.00  0.00    -0.506 OA
ATOM     23  H8  UNL     1     -18.179  15.262  41.739  0.00  0.00    +0.292 HD
ENDBRANCH   6  22
BRANCH   2  24
ATOM     24  O5  UNL     1     -20.849  14.746  38.092  0.00  0.00    -0.501 OA
ATOM     25  H9  UNL     1     -21.076  15.248  38.903  0.00  0.00    +0.292 HD
ENDBRANCH   2  24
TORSDOF 5
ENDMDL
MODEL 4
REMARK VINA RESULT:    -7.623      2.748      5.007
REMARK INTER + INTRA:          -9.084
REMARK INTER:                  -9.246
REMARK INTRA:                   0.162
REMARK UNBOUND:                -0.125
REMARK  Name = data/mahkota_dewa_dn/results/docking/ligands/pdb/Kaempferol.pdb
REMARK  5 active torsions:
REMARK  status: ('A' for Active; 'I' for Inactive)
REMARK    1  A    between atoms: C3_3  and  O6_21
REMARK    2  A    between atoms: C6_6  and  C7_7
REMARK    3  A    between atoms: C8_8  and  O5_20
REMARK    4  A    between atoms: C11_12  and  O4_19
REMARK    5  A    between atoms: C13_14  and  O3_18
REMARK                            x       y       z     vdW  Elec       q    Type
REMARK                         _______ _______ _______ _____ _____    ______ ____
ROOT
ATOM      1  C7  UNL     1     -18.566  12.995  38.774  0.00  0.00    +0.181 A 
ATOM      2  C8  UNL     1     -19.886  13.239  38.671  0.00  0.00    +0.208 A 
ATOM      3  C9  UNL     1     -20.596  12.782  37.453  0.00  0.00    +0.238 A 
ATOM      4  O1  UNL     1     -21.803  12.982  37.324  0.00  0.00    -0.283 OA
ATOM      5  C10 UNL     1     -19.810  12.093  36.429  0.00  0.00    +0.109 A 
ATOM      6  C11 UNL     1     -20.389  11.633  35.243  0.00  0.00    +0.135 A 
ATOM      7  C12 UNL     1     -19.604  10.983  34.293  0.00  0.00    +0.091 A 
ATOM      8  C13 UNL     1     -18.246  10.798  34.537  0.00  0.00    +0.124 A 
ATOM      9  C14 UNL     1     -17.659  11.251  35.715  0.00  0.00    +0.092 A 
ATOM     10  C15 UNL     1     -18.451  11.902  36.663  0.00  0.00    +0.147 A 
ATOM     11  O2  UNL     1     -17.823  12.327  37.807  0.00  0.00    -0.451 OA
ENDROOT
BRANCH   1  17
ATOM     12  C1  UNL     1     -18.037  14.600  40.607  0.00  0.00    +0.015 A 
ATOM     13  C2  UNL     1     -17.304  14.985  41.733  0.00  0.00    +0.046 A 
ATOM     14  C3  UNL     1     -16.290  14.162  42.207  0.00  0.00    +0.117 A 
ATOM     15  C4  UNL     1     -15.999  12.958  41.577  0.00  0.00    +0.046 A 
ATOM     16  C5  UNL     1     -16.736  12.574  40.451  0.00  0.00    +0.015 A 
ATOM     17  C6  UNL     1     -17.758  13.393  39.946  0.00  0.00    +0.021 A 
BRANCH  14  18
ATOM     18  O6  UNL     1     -15.599  14.575  43.307  0.00  0.00    -0.507 OA
ATOM     19  H10 UNL     1     -15.889  14.049  44.070  0.00  0.00    +0.292 HD
ENDBRANCH  14  18
ENDBRANCH   1  17
BRANCH   8  20
ATOM     20  O3  UNL     1     -17.514  10.157  33.581  0.00  0.00    -0.507 OA
ATOM     21  H7  UNL     1     -17.187  10.805  32.937  0.00  0.00    +0.292 HD
ENDBRANCH   8  20
BRANCH   6  22
ATOM     22  O4  UNL     1     -21.716  11.787  34.951  0.00  0.00    -0.506 OA
ATOM     23  H8  UNL     1     -21.857  11.568  34.003  0.00  0.00    +0.292 HD
ENDBRANCH   6  22
BRANCH   2  24
ATOM     24  O5  UNL     1     -20.641  13.877  39.637  0.00  0.00    -0.501 OA
ATOM     25  H9  UNL     1     -21.522  14.014  39.230  0.00  0.00    +0.292 HD
ENDBRANCH   2  24
TORSDOF 5
ENDMDL
MODEL 5
REMARK VINA RESULT:    -7.622      3.095      7.359
REMARK INTER + INTRA:          -9.083
REMARK INTER:                  -8.781
REMARK INTRA:                  -0.302
REMARK UNBOUND:                -0.125
REMARK  Name = data/mahkota_dewa_dn/results/docking/ligands/pdb/Kaempferol.pdb
REMARK  5 active torsions:
REMARK  status: ('A' for Active; 'I' for Inactive)
REMARK    1  A    between atoms: C3_3  and  O6_21
REMARK    2  A    between atoms: C6_6  and  C7_7
REMARK    3  A    between atoms: C8_8  and  O5_20
REMARK    4  A    between atoms: C11_12  and  O4_19
REMARK    5  A    between atoms: C13_14  and  O3_18
REMARK                            x       y       z     vdW  Elec       q    Type
REMARK                         _______ _______ _______ _____ _____    ______ ____
ROOT
ATOM      1  C7  UNL     1     -20.932  11.999  37.018  0.00  0.00    +0.181 A 
ATOM      2  C8  UNL     1     -20.340  10.989  37.683  0.00  0.00    +0.208 A 
ATOM      3  C9  UNL     1     -19.321  11.318  38.707  0.00  0.00    +0.238 A 
ATOM      4  O1  UNL     1     -18.761  10.423  39.338  0.00  0.00    -0.283 OA
ATOM      5  C10 UNL     1     -19.015  12.732  38.929  0.00  0.00    +0.109 A 
ATOM      6  C11 UNL     1     -18.063  13.141  39.866  0.00  0.00    +0.135 A 
ATOM      7  C12 UNL     1     -17.801  14.497  40.045  0.00  0.00    +0.091 A 
ATOM      8  C13 UNL     1     -18.495  15.434  39.286  0.00  0.00    +0.124 A 
ATOM      9  C14 UNL     1     -19.446  15.039  38.349  0.00  0.00    +0.092 A 
ATOM     10  C15 UNL     1     -19.704  13.678  38.174  0.00  0.00    +0.147 A 
ATOM     11  O2  UNL     1     -20.652  13.343  37.241  0.00  0.00    -0.451 OA
ENDROOT
BRANCH   1  17
ATOM     12  C1  UNL     1     -23.327  11.811  36.350  0.00  0.00    +0.015 A 
ATOM     13  C2  UNL     1     -24.326  11.642  35.388  0.00  0.00    +0.046 A 
ATOM     14  C3  UNL     1     -23.976  11.458  34.057  0.00  0.00    +0.117 A 
ATOM     15  C4  UNL     1     -22.641  11.443  33.669  0.00  0.00    +0.046 A 
ATOM     16  C5  UNL     1     -21.642  11.614  34.633  0.00  0.00    +0.015 A 
ATOM     17  C6  UNL     1     -21.970  11.791  35.986  0.00  0.00    +0.021 A 
BRANCH  14  18
ATOM     18  O6  UNL     1     -24.982  11.296  33.151  0.00  0.00    -0.507 OA
ATOM     19  H10 UNL     1     -25.357  10.407  33.261  0.00  0.00    +0.292 HD
ENDBRANCH  14  18
ENDBRANCH   1  17
BRANCH   8  20
ATOM     20  O3  UNL     1     -18.209  16.752  39.492  0.00  0.00    -0.507 OA
ATOM     21  H7  UNL     1     -18.395  16.982  40.417  0.00  0.00    +0.292 HD
ENDBRANCH   8  20
BRANCH   6  22
ATOM     22  O4  UNL     1     -17.353  12.264  40.639  0.00  0.00    -0.506 OA
ATOM     23  H8  UNL     1     -17.594  12.409  41.581  0.00  0.00    +0.292 HD
ENDBRANCH   6  22
BRANCH   2  24
ATOM     24  O5  UNL     1     -20.630   9.651  37.491  0.00  0.00    -0.501 OA
ATOM     25  H9  UNL     1     -20.863   9.569  36.543  0.00  0.00    +0.292 HD
ENDBRANCH   2  24
TORSDOF 5
ENDMDL
MODEL 6
REMARK VINA RESULT:    -7.587      2.810      4.895
REMARK INTER + INTRA:          -9.043
REMARK INTER:                  -8.933
REMARK INTRA:                  -0.110
REMARK UNBOUND:                -0.125
REMARK  Name = data/mahkota_dewa_dn/results/docking/ligands/pdb/Kaempferol.pdb
REMARK  5 active torsions:
REMARK  status: ('A' for Active; 'I' for Inactive)
REMARK    1  A    between atoms: C3_3  and  O6_21
REMARK    2  A    between atoms: C6_6  and  C7_7
REMARK    3  A    between atoms: C8_8  and  O5_20
REMARK    4  A    between atoms: C11_12  and  O4_19
REMARK    5  A    between atoms: C13_14  and  O3_18
REMARK                            x       y       z     vdW  Elec       q    Type
REMARK                         _______ _______ _______ _____ _____    ______ ____
ROOT
ATOM      1  C7  UNL     1     -18.698  12.598  38.247  0.00  0.00    +0.181 A 
ATOM      2  C8  UNL     1     -18.108  12.060  37.163  0.00  0.00    +0.208 A 
ATOM      3  C9  UNL     1     -18.961  11.651  36.022  0.00  0.00    +0.238 A 
ATOM      4  O1  UNL     1     -18.459  11.160  35.013  0.00  0.00    -0.283 OA
ATOM      5  C10 UNL     1     -20.405  11.855  36.150  0.00  0.00    +0.109 A 
ATOM      6  C11 UNL     1     -21.292  11.494  35.132  0.00  0.00    +0.135 A 
ATOM      7  C12 UNL     1     -22.659  11.704  35.295  0.00  0.00    +0.091 A 
ATOM      8  C13 UNL     1     -23.129  12.275  36.474  0.00  0.00    +0.124 A 
ATOM      9  C14 UNL     1     -22.255  12.639  37.494  0.00  0.00    +0.092 A 
ATOM     10  C15 UNL     1     -20.885  12.426  37.326  0.00  0.00    +0.147 A 
ATOM     11  O2  UNL     1     -20.068  12.805  38.360  0.00  0.00    -0.451 OA
ENDROOT
BRANCH   1  17
ATOM     12  C1  UNL     1     -18.124  14.363  39.913  0.00  0.00    +0.015 A 
ATOM     13  C2  UNL     1     -17.444  14.807  41.050  0.00  0.00    +0.046 A 
ATOM     14  C3  UNL     1     -16.586  13.944  41.719  0.00  0.00    +0.117 A 
ATOM     15  C4  UNL     1     -16.400  12.640  41.273  0.00  0.00    +0.046 A 
ATOM     16  C5  UNL     1     -17.082  12.197  40.136  0.00  0.00    +0.015 A 
ATOM     17  C6  UNL     1     -17.947  13.053  39.436  0.00  0.00    +0.021 A 
BRANCH  14  18
ATOM     18  O6  UNL     1     -15.942  14.418  42.823  0.00  0.00    -0.507 OA
ATOM     19  H10 UNL     1     -15.788  15.370  42.706  0.00  0.00    +0.292 HD
ENDBRANCH  14  18
ENDBRANCH   1  17
BRANCH   8  20
ATOM     20  O3  UNL     1     -24.475  12.463  36.593  0.00  0.00    -0.507 OA
ATOM     21  H7  UNL     1     -24.650  13.387  36.837  0.00  0.00    +0.292 HD
ENDBRANCH   8  20
BRANCH   6  22
ATOM     22  O4  UNL     1     -20.886  10.930  33.954  0.00  0.00    -0.506 OA
ATOM     23  H8  UNL     1     -21.563  10.277  33.668  0.00  0.00    +0.292 HD
ENDBRANCH   6  22
BRANCH   2  24
ATOM     24  O5  UNL     1     -16.745  11.875  37.026  0.00  0.00    -0.501 OA
ATOM     25  H9  UNL     1     -16.331  12.641  37.475  0.00  0.00    +0.292 HD
ENDBRANCH   2  24
TORSDOF 5
ENDMDL
MODEL 7
REMARK VINA RESULT:    -7.025      2.369      7.447
REMARK INTER + INTRA:          -8.381
REMARK INTER:                  -8.108
REMARK INTRA:                  -0.273
REMARK UNBOUND:                -0.125
REMARK  Name = data/mahkota_dewa_dn/results/docking/ligands/pdb/Kaempferol.pdb
REMARK  5 active torsions:
REMARK  status: ('A' for Active; 'I' for Inactive)
REMARK    1  A    between atoms: C3_3  and  O6_21
REMARK    2  A    between atoms: C6_6  and  C7_7
REMARK    3  A    between atoms: C8_8  and  O5_20
REMARK    4  A    between atoms: C11_12  and  O4_19
REMARK    5  A    between atoms: C13_14  and  O3_18
REMARK                            x       y       z     vdW  Elec       q    Type
REMARK                         _______ _______ _______ _____ _____    ______ ____
ROOT
ATOM      1  C7  UNL     1     -15.833  10.071  41.410  0.00  0.00    +0.181 A 
ATOM      2  C8  UNL     1     -14.716   9.499  40.925  0.00  0.00    +0.208 A 
ATOM      3  C9  UNL     1     -14.326   8.163  41.434  0.00  0.00    +0.238 A 
ATOM      4  O1  UNL     1     -13.314   7.606  41.012  0.00  0.00    -0.283 OA
ATOM      5  C10 UNL     1     -15.187   7.547  42.445  0.00  0.00    +0.109 A 
ATOM      6  C11 UNL     1     -14.898   6.293  42.993  0.00  0.00    +0.135 A 
ATOM      7  C12 UNL     1     -15.743   5.744  43.954  0.00  0.00    +0.091 A 
ATOM      8  C13 UNL     1     -16.871   6.451  44.360  0.00  0.00    +0.124 A 
ATOM      9  C14 UNL     1     -17.168   7.700  43.822  0.00  0.00    +0.092 A 
ATOM     10  C15 UNL     1     -16.318   8.246  42.859  0.00  0.00    +0.147 A 
ATOM     11  O2  UNL     1     -16.658   9.478  42.359  0.00  0.00    -0.451 OA
ENDROOT
BRANCH   1  17
ATOM     12  C1  UNL     1     -17.020  11.506  39.751  0.00  0.00    +0.015 A 
ATOM     13  C2  UNL     1     -17.515  12.741  39.324  0.00  0.00    +0.046 A 
ATOM     14  C3  UNL     1     -17.323  13.869  40.111  0.00  0.00    +0.117 A 
ATOM     15  C4  UNL     1     -16.646  13.783  41.323  0.00  0.00    +0.046 A 
ATOM     16  C5  UNL     1     -16.153  12.545  41.749  0.00  0.00    +0.015 A 
ATOM     17  C6  UNL     1     -16.325  11.393  40.967  0.00  0.00    +0.021 A 
BRANCH  14  18
ATOM     18  O6  UNL     1     -17.822  15.053  39.657  0.00  0.00    -0.507 OA
ATOM     19  H10 UNL     1     -18.438  14.870  38.928  0.00  0.00    +0.292 HD
ENDBRANCH  14  18
ENDBRANCH   1  17
BRANCH   8  20
ATOM     20  O3  UNL     1     -17.672   5.877  45.304  0.00  0.00    -0.507 OA
ATOM     21  H7  UNL     1     -18.055   6.571  45.866  0.00  0.00    +0.292 HD
ENDBRANCH   8  20
BRANCH   6  22
ATOM     22  O4  UNL     1     -13.806   5.555  42.631  0.00  0.00    -0.506 OA
ATOM     23  H8  UNL     1     -14.115   4.704  42.247  0.00  0.00    +0.292 HD
ENDBRANCH   6  22
BRANCH   2  24
ATOM     24  O5  UNL     1     -13.902  10.065  39.961  0.00  0.00    -0.501 OA
ATOM     25  H9  UNL     1     -14.102   9.578  39.134  0.00  0.00    +0.292 HD
ENDBRANCH   2  24
TORSDOF 5
ENDMDL
MODEL 8
REMARK VINA RESULT:    -6.903      3.105      5.466
REMARK INTER + INTRA:          -8.239
REMARK INTER:                  -7.966
REMARK INTRA:                  -0.273
REMARK UNBOUND:                -0.125
REMARK  Name = data/mahkota_dewa_dn/results/docking/ligands/pdb/Kaempferol.pdb
REMARK  5 active torsions:
REMARK  status: ('A' for Active; 'I' for Inactive)
REMARK    1  A    between atoms: C3_3  and  O6_21
REMARK    2  A    between atoms: C6_6  and  C7_7
REMARK    3  A    between atoms: C8_8  and  O5_20
REMARK    4  A    between atoms: C11_12  and  O4_19
REMARK    5  A    between atoms: C13_14  and  O3_18
REMARK                            x       y       z     vdW  Elec       q    Type
REMARK                         _______ _______ _______ _____ _____    ______ ____
ROOT
ATOM      1  C7  UNL     1     -18.726  11.883  38.746  0.00  0.00    +0.181 A 
ATOM      2  C8  UNL     1     -19.950  11.350  38.920  0.00  0.00    +0.208 A 
ATOM      3  C9  UNL     1     -20.557  10.591  37.801  0.00  0.00    +0.238 A 
ATOM      4  O1  UNL     1     -21.672  10.086  37.923  0.00  0.00    -0.283 OA
ATOM      5  C10 UNL     1     -19.783  10.471  36.565  0.00  0.00    +0.109 A 
ATOM      6  C11 UNL     1     -20.274   9.783  35.452  0.00  0.00    +0.135 A 
ATOM      7  C12 UNL     1     -19.504   9.694  34.295  0.00  0.00    +0.091 A 
ATOM      8  C13 UNL     1     -18.249  10.294  34.259  0.00  0.00    +0.124 A 
ATOM      9  C14 UNL     1     -17.750  10.983  35.361  0.00  0.00    +0.092 A 
ATOM     10  C15 UNL     1     -18.525  11.068  36.519  0.00  0.00    +0.147 A 
ATOM     11  O2  UNL     1     -17.985  11.756  37.576  0.00  0.00    -0.451 OA
ENDROOT
BRANCH   1  17
ATOM     12  C1  UNL     1     -16.948  12.057  40.484  0.00  0.00    +0.015 A 
ATOM     13  C2  UNL     1     -16.248  12.769  41.462  0.00  0.00    +0.046 A 
ATOM     14  C3  UNL     1     -16.612  14.078  41.752  0.00  0.00    +0.117 A 
ATOM     15  C4  UNL     1     -17.664  14.689  41.078  0.00  0.00    +0.046 A 
ATOM     16  C5  UNL     1     -18.361  13.974  40.099  0.00  0.00    +0.015 A 
ATOM     17  C6  UNL     1     -18.019  12.647  39.795  0.00  0.00    +0.021 A 
BRANCH  14  18
ATOM     18  O6  UNL     1     -15.905  14.736  42.713  0.00  0.00    -0.507 OA
ATOM     19  H10 UNL     1     -15.477  15.508  42.308  0.00  0.00    +0.292 HD
ENDBRANCH  14  18
ENDBRANCH   1  17
BRANCH   8  20
ATOM     20  O3  UNL     1     -17.528  10.184  33.106  0.00  0.00    -0.507 OA
ATOM     21  H7  UNL     1     -16.594  10.028  33.324  0.00  0.00    +0.292 HD
ENDBRANCH   8  20
BRANCH   6  22
ATOM     22  O4  UNL     1     -21.498   9.174  35.432  0.00  0.00    -0.506 OA
ATOM     23  H8  UNL     1     -21.439   8.331  35.935  0.00  0.00    +0.292 HD
ENDBRANCH   6  22
BRANCH   2  24
ATOM     24  O5  UNL     1     -20.686  11.445  40.087  0.00  0.00    -0.501 OA
ATOM     25  H9  UNL     1     -20.677  12.396  40.323  0.00  0.00    +0.292 HD
ENDBRANCH   2  24
TORSDOF 5
ENDMDL
MODEL 9
REMARK VINA RESULT:    -6.647      2.883      6.472
REMARK INTER + INTRA:          -7.937
REMARK INTER:                  -7.641
REMARK INTRA:                  -0.296
REMARK UNBOUND:                -0.125
REMARK  Name = data/mahkota_dewa_dn/results/docking/ligands/pdb/Kaempferol.pdb
REMARK  5 active torsions:
REMARK  status: ('A' for Active; 'I' for Inactive)
REMARK    1  A    between atoms: C3_3  and  O6_21
REMARK    2  A    between atoms: C6_6  and  C7_7
REMARK    3  A    between atoms: C8_8  and  O5_20
REMARK    4  A    between atoms: C11_12  and  O4_19
REMARK    5  A    between atoms: C13_14  and  O3_18
REMARK                            x       y       z     vdW  Elec       q    Type
REMARK                         _______ _______ _______ _____ _____    ______ ____
ROOT
ATOM      1  C7  UNL     1     -20.833  11.913  37.660  0.00  0.00    +0.181 A 
ATOM      2  C8  UNL     1     -21.324  13.112  38.024  0.00  0.00    +0.208 A 
ATOM      3  C9  UNL     1     -20.496  13.983  38.891  0.00  0.00    +0.238 A 
ATOM      4  O1  UNL     1     -20.908  15.087  39.241  0.00  0.00    -0.283 OA
ATOM      5  C10 UNL     1     -19.186  13.477  39.305  0.00  0.00    +0.109 A 
ATOM      6  C11 UNL     1     -18.336  14.221  40.128  0.00  0.00    +0.135 A 
ATOM      7  C12 UNL     1     -17.099  13.702  40.499  0.00  0.00    +0.091 A 
ATOM      8  C13 UNL     1     -16.719  12.443  40.044  0.00  0.00    +0.124 A 
ATOM      9  C14 UNL     1     -17.557  11.693  39.222  0.00  0.00    +0.092 A 
ATOM     10  C15 UNL     1     -18.796  12.218  38.854  0.00  0.00    +0.147 A 
ATOM     11  O2  UNL     1     -19.582  11.440  38.041  0.00  0.00    -0.451 OA
ENDROOT
BRANCH   1  17
ATOM     12  C1  UNL     1     -21.259  10.905  35.420  0.00  0.00    +0.015 A 
ATOM     13  C2  UNL     1     -21.919  10.002  34.582  0.00  0.00    +0.046 A 
ATOM     14  C3  UNL     1     -22.884   9.154  35.109  0.00  0.00    +0.117 A 
ATOM     15  C4  UNL     1     -23.198   9.190  36.463  0.00  0.00    +0.046 A 
ATOM     16  C5  UNL     1     -22.535  10.093  37.300  0.00  0.00    +0.015 A 
ATOM     17  C6  UNL     1     -21.564  10.968  36.789  0.00  0.00    +0.021 A 
BRANCH  14  18
ATOM     18  O6  UNL     1     -23.504   8.289  34.257  0.00  0.00    -0.507 OA
ATOM     19  H10 UNL     1     -22.979   8.227  33.443  0.00  0.00    +0.292 HD
ENDBRANCH  14  18
ENDBRANCH   1  17
BRANCH   8  20
ATOM     20  O3  UNL     1     -15.499  11.971  40.430  0.00  0.00    -0.507 OA
ATOM     21  H7  UNL     1     -15.246  11.226  39.860  0.00  0.00    +0.292 HD
ENDBRANCH   8  20
BRANCH   6  22
ATOM     22  O4  UNL     1     -18.657  15.462  40.605  0.00  0.00    -0.506 OA
ATOM     23  H8  UNL     1     -19.425  15.805  40.095  0.00  0.00    +0.292 HD
ENDBRANCH   6  22
BRANCH   2  24
ATOM     24  O5  UNL     1     -22.554  13.605  37.630  0.00  0.00    -0.501 OA
ATOM     25  H9  UNL     1     -22.420  13.937  36.717  0.00  0.00    +0.292 HD
ENDBRANCH   2  24
TORSDOF 5
ENDMDL
