MODEL 1
REMARK VINA RESULT:    -8.084      0.000      0.000
REMARK INTER + INTRA:          -9.551
REMARK INTER:                  -9.265
REMARK INTRA:                  -0.286
REMARK UNBOUND:                -0.286
REMARK  Name = data/mahkota_dewa_dn/results/docking/ligands/pdb/Apigenin.pdb
REMARK  4 active torsions:
REMARK  status: ('A' for Active; 'I' for Inactive)
REMARK    1  A    between atoms: C3_3  and  O5_20
REMARK    2  A    between atoms: C6_6  and  C7_7
REMARK    3  A    between atoms: C11_12  and  O4_19
REMARK    4  A    between atoms: C13_14  and  O3_18
REMARK                            x       y       z     vdW  Elec       q    Type
REMARK                         _______ _______ _______ _____ _____    ______ ____
ROOT
ATOM      1  C7  UNL     1     -17.065  12.105  40.550  0.00  0.00    +0.139 A 
ATOM      2  C8  UNL     1     -16.770  13.356  40.935  0.00  0.00    +0.098 A 
ATOM      3  C9  UNL     1     -17.713  14.439  40.622  0.00  0.00    +0.197 A 
ATOM      4  O1  UNL     1     -17.491  15.599  40.946  0.00  0.00    -0.287 OA
ATOM      5  C10 UNL     1     -18.938  14.072  39.901  0.00  0.00    +0.105 A 
ATOM      6  C11 UNL     1     -19.900  15.026  39.555  0.00  0.00    +0.135 A 
ATOM      7  C12 UNL     1     -21.052  14.644  38.871  0.00  0.00    +0.091 A 
ATOM      8  C13 UNL     1     -21.232  13.303  38.541  0.00  0.00    +0.124 A 
ATOM      9  C14 UNL     1     -20.281  12.345  38.882  0.00  0.00    +0.092 A 
ATOM     10  C15 UNL     1     -19.129  12.734  39.565  0.00  0.00    +0.146 A 
ATOM     11  O2  UNL     1     -18.226  11.749  39.879  0.00  0.00    -0.454 OA
ENDROOT
BRANCH   1  17
ATOM     12  C1  UNL     1     -14.794  11.074  40.558  0.00  0.00    +0.015 A 
ATOM     13  C2  UNL     1     -13.922  10.016  40.835  0.00  0.00    +0.046 A 
ATOM     14  C3  UNL     1     -14.421   8.852  41.407  0.00  0.00    +0.117 A 
ATOM     15  C4  UNL     1     -15.772   8.731  41.707  0.00  0.00    +0.046 A 
ATOM     16  C5  UNL     1     -16.642   9.788  41.429  0.00  0.00    +0.015 A 
ATOM     17  C6  UNL     1     -16.166  10.972  40.842  0.00  0.00    +0.018 A 
BRANCH  14  18
ATOM     18  O5  UNL     1     -13.610   7.796  41.695  0.00  0.00    -0.507 OA
ATOM     19  H10 UNL     1     -12.832   8.123  42.177  0.00  0.00    +0.292 HD
ENDBRANCH  14  18
ENDBRANCH   1  17
BRANCH   8  20
ATOM     20  O3  UNL     1     -22.343  12.882  37.873  0.00  0.00    -0.507 OA
ATOM     21  H8  UNL     1     -22.511  13.486  37.130  0.00  0.00    +0.292 HD
ENDBRANCH   8  20
BRANCH   6  22
ATOM     22  O4  UNL     1     -19.773  16.356  39.855  0.00  0.00    -0.506 OA
ATOM     23  H9  UNL     1     -19.016  16.716  39.341  0.00  0.00    +0.292 HD
ENDBRANCH   6  22
TORSDOF 4
ENDMDL
MODEL 2
REMARK VINA RESULT:    -8.023      2.908      4.608
REMARK INTER + INTRA:          -9.482
REMARK INTER:                  -9.187
REMARK INTRA:                  -0.295
REMARK UNBOUND:                -0.286
REMARK  Name = data/mahkota_dewa_dn/results/docking/ligands/pdb/Apigenin.pdb
REMARK  4 active torsions:
REMARK  status: ('A' for Active; 'I' for Inactive)
REMARK    1  A    between atoms: C3_3  and  O5_20
REMARK    2  A    between atoms: C6_6  and  C7_7
REMARK    3  A    between atoms: C11_12  and  O4_19
REMARK    4  A    between atoms: C13_14  and  O3_18
REMARK                            x       y       z     vdW  Elec       q    Type
REMARK                         _______ _______ _______ _____ _____    ______ ____
ROOT
ATOM      1  C7  UNL     1     -18.306  12.759  38.628  0.00  0.00    +0.139 A 
ATOM      2  C8  UNL     1     -17.619  12.237  37.601  0.00  0.00    +0.098 A 
ATOM      3  C9  UNL     1     -18.352  11.787  36.409  0.00  0.00    +0.197 A 
ATOM      4  O1  UNL     1     -17.775  11.298  35.445  0.00  0.00    -0.287 OA
ATOM      5  C10 UNL     1     -19.810  11.949  36.421  0.00  0.00    +0.105 A 
ATOM      6  C11 UNL     1     -20.602  11.554  35.337  0.00  0.00    +0.135 A 
ATOM      7  C12 UNL     1     -21.984  11.722  35.381  0.00  0.00    +0.091 A 
ATOM      8  C13 UNL     1     -22.564  12.289  36.512  0.00  0.00    +0.124 A 
ATOM      9  C14 UNL     1     -21.786  12.686  37.597  0.00  0.00    +0.092 A 
ATOM     10  C15 UNL     1     -20.402  12.515  37.548  0.00  0.00    +0.146 A 
ATOM     11  O2  UNL     1     -19.682  12.925  38.642  0.00  0.00    -0.454 OA
ENDROOT
BRANCH   1  17
ATOM     12  C1  UNL     1     -16.542  12.520  40.376  0.00  0.00    +0.015 A 
ATOM     13  C2  UNL     1     -15.879  12.961  41.526  0.00  0.00    +0.046 A 
ATOM     14  C3  UNL     1     -16.299  14.129  42.151  0.00  0.00    +0.117 A 
ATOM     15  C4  UNL     1     -17.364  14.862  41.644  0.00  0.00    +0.046 A 
ATOM     16  C5  UNL     1     -18.025  14.421  40.495  0.00  0.00    +0.015 A 
ATOM     17  C6  UNL     1     -17.628  13.238  39.849  0.00  0.00    +0.018 A 
BRANCH  14  18
ATOM     18  O5  UNL     1     -15.684  14.597  43.273  0.00  0.00    -0.507 OA
ATOM     19  H10 UNL     1     -14.749  14.333  43.249  0.00  0.00    +0.292 HD
ENDBRANCH  14  18
ENDBRANCH   1  17
BRANCH   8  20
ATOM     20  O3  UNL     1     -23.912  12.474  36.601  0.00  0.00    -0.507 OA
ATOM     21  H8  UNL     1     -24.183  12.364  37.528  0.00  0.00    +0.292 HD
ENDBRANCH   8  20
BRANCH   6  22
ATOM     22  O4  UNL     1     -20.084  10.993  34.201  0.00  0.00    -0.506 OA
ATOM     23  H9  UNL     1     -20.781  11.007  33.506  0.00  0.00    +0.292 HD
ENDBRANCH   6  22
TORSDOF 4
ENDMDL
MODEL 3
REMARK VINA RESULT:    -7.856      2.923      4.925
REMARK INTER + INTRA:          -9.290
REMARK INTER:                  -8.987
REMARK INTRA:                  -0.303
REMARK UNBOUND:                -0.286
REMARK  Name = data/mahkota_dewa_dn/results/docking/ligands/pdb/Apigenin.pdb
REMARK  4 active torsions:
REMARK  status: ('A' for Active; 'I' for Inactive)
REMARK    1  A    between atoms: C3_3  and  O5_20
REMARK    2  A    between atoms: C6_6  and  C7_7
REMARK    3  A    between atoms: C11_12  and  O4_19
REMARK    4  A    between atoms: C13_14  and  O3_18
REMARK                            x       y       z     vdW  Elec       q    Type
REMARK                         _______ _______ _______ _____ _____    ______ ____
ROOT
ATOM      1  C7  UNL     1     -18.608  13.011  38.949  0.00  0.00    +0.139 A 
ATOM      2  C8  UNL     1     -19.925  13.256  38.871  0.00  0.00    +0.098 A 
ATOM      3  C9  UNL     1     -20.660  12.826  37.674  0.00  0.00    +0.197 A 
ATOM      4  O1  UNL     1     -21.862  13.029  37.549  0.00  0.00    -0.287 OA
ATOM      5  C10 UNL     1     -19.894  12.139  36.629  0.00  0.00    +0.105 A 
ATOM      6  C11 UNL     1     -20.497  11.688  35.450  0.00  0.00    +0.135 A 
ATOM      7  C12 UNL     1     -19.740  11.038  34.479  0.00  0.00    +0.091 A 
ATOM      8  C13 UNL     1     -18.379  10.843  34.697  0.00  0.00    +0.124 A 
ATOM      9  C14 UNL     1     -17.767  11.287  35.867  0.00  0.00    +0.092 A 
ATOM     10  C15 UNL     1     -18.530  11.937  36.836  0.00  0.00    +0.146 A 
ATOM     11  O2  UNL     1     -17.879  12.352  37.970  0.00  0.00    -0.454 OA
ENDROOT
BRANCH   1  17
ATOM     12  C1  UNL     1     -16.686  12.658  40.499  0.00  0.00    +0.015 A 
ATOM     13  C2  UNL     1     -15.913  13.021  41.606  0.00  0.00    +0.046 A 
ATOM     14  C3  UNL     1     -16.265  14.145  42.345  0.00  0.00    +0.117 A 
ATOM     15  C4  UNL     1     -17.370  14.909  41.992  0.00  0.00    +0.046 A 
ATOM     16  C5  UNL     1     -18.140  14.545  40.886  0.00  0.00    +0.015 A 
ATOM     17  C6  UNL     1     -17.814  13.408  40.128  0.00  0.00    +0.018 A 
BRANCH  14  18
ATOM     18  O5  UNL     1     -15.542  14.538  43.431  0.00  0.00    -0.507 OA
ATOM     19  H10 UNL     1     -15.759  15.463  43.632  0.00  0.00    +0.292 HD
ENDBRANCH  14  18
ENDBRANCH   1  17
BRANCH   8  20
ATOM     20  O3  UNL     1     -17.597  10.212  33.775  0.00  0.00    -0.507 OA
ATOM     21  H8  UNL     1     -17.420  10.825  33.041  0.00  0.00    +0.292 HD
ENDBRANCH   8  20
BRANCH   6  22
ATOM     22  O4  UNL     1     -21.830  11.853  35.185  0.00  0.00    -0.506 OA
ATOM     23  H9  UNL     1     -22.211  12.438  35.879  0.00  0.00    +0.292 HD
ENDBRANCH   6  22
TORSDOF 4
ENDMDL
MODEL 4
REMARK VINA RESULT:    -7.847      2.636      6.341
REMARK INTER + INTRA:          -9.280
REMARK INTER:                  -8.998
REMARK INTRA:                  -0.282
REMARK UNBOUND:                -0.286
REMARK  Name = data/mahkota_dewa_dn/results/docking/ligands/pdb/Apigenin.pdb
REMARK  4 active torsions:
REMARK  status: ('A' for Active; 'I' for Inactive)
REMARK    1  A    between atoms: C3_3  and  O5_20
REMARK    2  A    between atoms: C6_6  and  C7_7
REMARK    3  A    between atoms: C11_12  and  O4_19
REMARK    4  A    between atoms: C13_14  and  O3_18
REMARK                            x       y       z     vdW  Elec       q    Type
REMARK                         _______ _______ _______ _____ _____    ______ ____
ROOT
ATOM      1  C7  UNL     1     -19.487  12.952  37.679  0.00  0.00    +0.139 A 
ATOM      2  C8  UNL     1     -19.843  14.095  38.285  0.00  0.00    +0.098 A 
ATOM      3  C9  UNL     1     -19.078  14.549  39.454  0.00  0.00    +0.197 A 
ATOM      4  O1  UNL     1     -19.363  15.582  40.048  0.00  0.00    -0.287 OA
ATOM      5  C10 UNL     1     -17.953  13.711  39.885  0.00  0.00    +0.105 A 
ATOM      6  C11 UNL     1     -17.161  14.053  40.986  0.00  0.00    +0.135 A 
ATOM      7  C12 UNL     1     -16.100  13.235  41.367  0.00  0.00    +0.091 A 
ATOM      8  C13 UNL     1     -15.839  12.078  40.639  0.00  0.00    +0.124 A 
ATOM      9  C14 UNL     1     -16.621  11.727  39.540  0.00  0.00    +0.092 A 
ATOM     10  C15 UNL     1     -17.682  12.550  39.164  0.00  0.00    +0.146 A 
ATOM     11  O2  UNL     1     -18.419  12.160  38.073  0.00  0.00    -0.454 OA
ENDROOT
BRANCH   1  17
ATOM     12  C1  UNL     1     -19.501  12.154  35.316  0.00  0.00    +0.015 A 
ATOM     13  C2  UNL     1     -20.162  11.665  34.184  0.00  0.00    +0.046 A 
ATOM     14  C3  UNL     1     -21.536  11.459  34.231  0.00  0.00    +0.117 A 
ATOM     15  C4  UNL     1     -22.255  11.731  35.388  0.00  0.00    +0.046 A 
ATOM     16  C5  UNL     1     -21.594  12.219  36.517  0.00  0.00    +0.015 A 
ATOM     17  C6  UNL     1     -20.208  12.446  36.494  0.00  0.00    +0.018 A 
BRANCH  14  18
ATOM     18  O5  UNL     1     -22.221  10.984  33.155  0.00  0.00    -0.507 OA
ATOM     19  H10 UNL     1     -23.097  11.405  33.131  0.00  0.00    +0.292 HD
ENDBRANCH  14  18
ENDBRANCH   1  17
BRANCH   8  20
ATOM     20  O3  UNL     1     -14.812  11.246  40.974  0.00  0.00    -0.507 OA
ATOM     21  H8  UNL     1     -13.986  11.602  40.604  0.00  0.00    +0.292 HD
ENDBRANCH   8  20
BRANCH   6  22
ATOM     22  O4  UNL     1     -17.373  15.179  41.736  0.00  0.00    -0.506 OA
ATOM     23  H9  UNL     1     -16.508  15.633  41.857  0.00  0.00    +0.292 HD
ENDBRANCH   6  22
TORSDOF 4
ENDMDL
MODEL 5
REMARK VINA RESULT:    -7.716      2.468      6.612
REMARK INTER + INTRA:          -9.130
REMARK INTER:                  -8.827
REMARK INTRA:                  -0.303
REMARK UNBOUND:                -0.286
REMARK  Name = data/mahkota_dewa_dn/results/docking/ligands/pdb/Apigenin.pdb
REMARK  4 active torsions:
REMARK  status: ('A' for Active; 'I' for Inactive)
REMARK    1  A    between atoms: C3_3  and  O5_20
REMARK    2  A    between atoms: C6_6  and  C7_7
REMARK    3  A    between atoms: C11_12  and  O4_19
REMARK    4  A    between atoms: C13_14  and  O3_18
REMARK                            x       y       z     vdW  Elec       q    Type
REMARK                         _______ _______ _______ _____ _____    ______ ____
ROOT
ATOM      1  C7  UNL     1     -19.309  12.207  38.566  0.00  0.00    +0.139 A 
ATOM      2  C8  UNL     1     -18.307  11.346  38.334  0.00  0.00    +0.098 A 
ATOM      3  C9  UNL     1     -17.099  11.416  39.168  0.00  0.00    +0.197 A 
ATOM      4  O1  UNL     1     -16.153  10.658  38.995  0.00  0.00    -0.287 OA
ATOM      5  C10 UNL     1     -17.073  12.437  40.221  0.00  0.00    +0.105 A 
ATOM      6  C11 UNL     1     -15.972  12.589  41.071  0.00  0.00    +0.135 A 
ATOM      7  C12 UNL     1     -15.980  13.568  42.061  0.00  0.00    +0.091 A 
ATOM      8  C13 UNL     1     -17.096  14.390  42.195  0.00  0.00    +0.124 A 
ATOM      9  C14 UNL     1     -18.199  14.247  41.356  0.00  0.00    +0.092 A 
ATOM     10  C15 UNL     1     -18.184  13.266  40.365  0.00  0.00    +0.146 A 
ATOM     11  O2  UNL     1     -19.296  13.166  39.567  0.00  0.00    -0.454 OA
ENDROOT
BRANCH   1  17
ATOM     12  C1  UNL     1     -21.765  12.588  38.352  0.00  0.00    +0.015 A 
ATOM     13  C2  UNL     1     -22.954  12.581  37.615  0.00  0.00    +0.046 A 
ATOM     14  C3  UNL     1     -22.931  12.172  36.287  0.00  0.00    +0.117 A 
ATOM     15  C4  UNL     1     -21.743  11.775  35.687  0.00  0.00    +0.046 A 
ATOM     16  C5  UNL     1     -20.557  11.783  36.424  0.00  0.00    +0.015 A 
ATOM     17  C6  UNL     1     -20.553  12.181  37.771  0.00  0.00    +0.018 A 
BRANCH  14  18
ATOM     18  O5  UNL     1     -24.063  12.149  35.530  0.00  0.00    -0.507 OA
ATOM     19  H10 UNL     1     -24.190  13.027  35.132  0.00  0.00    +0.292 HD
ENDBRANCH  14  18
ENDBRANCH   1  17
BRANCH   8  20
ATOM     20  O3  UNL     1     -17.150  15.361  43.150  0.00  0.00    -0.507 OA
ATOM     21  H8  UNL     1     -18.075  15.476  43.429  0.00  0.00    +0.292 HD
ENDBRANCH   8  20
BRANCH   6  22
ATOM     22  O4  UNL     1     -14.850  11.809  40.984  0.00  0.00    -0.506 OA
ATOM     23  H9  UNL     1     -14.518  11.850  40.058  0.00  0.00    +0.292 HD
ENDBRANCH   6  22
TORSDOF 4
ENDMDL
MODEL 6
REMARK VINA RESULT:    -7.450      3.763      6.037
REMARK INTER + INTRA:          -8.825
REMARK INTER:                  -8.512
REMARK INTRA:                  -0.313
REMARK UNBOUND:                -0.286
REMARK  Name = data/mahkota_dewa_dn/results/docking/ligands/pdb/Apigenin.pdb
REMARK  4 active torsions:
REMARK  status: ('A' for Active; 'I' for Inactive)
REMARK    1  A    between atoms: C3_3  and  O5_20
REMARK    2  A    between atoms: C6_6  and  C7_7
REMARK    3  A    between atoms: C11_12  and  O4_19
REMARK    4  A    between atoms: C13_14  and  O3_18
REMARK                            x       y       z     vdW  Elec       q    Type
REMARK                         _______ _______ _______ _____ _____    ______ ____
ROOT
ATOM      1  C7  UNL     1     -18.289  11.923  36.583  0.00  0.00    +0.139 A 
ATOM      2  C8  UNL     1     -17.375  11.317  37.357  0.00  0.00    +0.098 A 
ATOM      3  C9  UNL     1     -17.003  11.935  38.637  0.00  0.00    +0.197 A 
ATOM      4  O1  UNL     1     -16.171  11.427  39.379  0.00  0.00    -0.287 OA
ATOM      5  C10 UNL     1     -17.671  13.192  38.992  0.00  0.00    +0.105 A 
ATOM      6  C11 UNL     1     -17.390  13.862  40.187  0.00  0.00    +0.135 A 
ATOM      7  C12 UNL     1     -18.044  15.053  40.494  0.00  0.00    +0.091 A 
ATOM      8  C13 UNL     1     -18.979  15.564  39.599  0.00  0.00    +0.124 A 
ATOM      9  C14 UNL     1     -19.268  14.906  38.406  0.00  0.00    +0.092 A 
ATOM     10  C15 UNL     1     -18.609  13.714  38.104  0.00  0.00    +0.146 A 
ATOM     11  O2  UNL     1     -18.933  13.104  36.918  0.00  0.00    -0.454 OA
ENDROOT
BRANCH   1  17
ATOM     12  C1  UNL     1     -18.059  10.217  34.778  0.00  0.00    +0.015 A 
ATOM     13  C2  UNL     1     -18.450   9.650  33.561  0.00  0.00    +0.046 A 
ATOM     14  C3  UNL     1     -19.506  10.213  32.854  0.00  0.00    +0.117 A 
ATOM     15  C4  UNL     1     -20.176  11.326  33.346  0.00  0.00    +0.046 A 
ATOM     16  C5  UNL     1     -19.784  11.891  34.562  0.00  0.00    +0.015 A 
ATOM     17  C6  UNL     1     -18.713  11.348  35.291  0.00  0.00    +0.018 A 
BRANCH  14  18
ATOM     18  O5  UNL     1     -19.923   9.696  31.665  0.00  0.00    -0.507 OA
ATOM     19  H10 UNL     1     -20.734  10.156  31.391  0.00  0.00    +0.292 HD
ENDBRANCH  14  18
ENDBRANCH   1  17
BRANCH   8  20
ATOM     20  O3  UNL     1     -19.644  16.727  39.855  0.00  0.00    -0.507 OA
ATOM     21  H8  UNL     1     -19.035  17.346  40.293  0.00  0.00    +0.292 HD
ENDBRANCH   8  20
BRANCH   6  22
ATOM     22  O4  UNL     1     -16.481  13.403  41.103  0.00  0.00    -0.506 OA
ATOM     23  H9  UNL     1     -15.859  12.797  40.640  0.00  0.00    +0.292 HD
ENDBRANCH   6  22
TORSDOF 4
ENDMDL
MODEL 7
REMARK VINA RESULT:    -7.070      3.575      5.818
REMARK INTER + INTRA:          -8.389
REMARK INTER:                  -8.114
REMARK INTRA:                  -0.276
REMARK UNBOUND:                -0.286
REMARK  Name = data/mahkota_dewa_dn/results/docking/ligands/pdb/Apigenin.pdb
REMARK  4 active torsions:
REMARK  status: ('A' for Active; 'I' for Inactive)
REMARK    1  A    between atoms: C3_3  and  O5_20
REMARK    2  A    between atoms: C6_6  and  C7_7
REMARK    3  A    between atoms: C11_12  and  O4_19
REMARK    4  A    between atoms: C13_14  and  O3_18
REMARK                            x       y       z     vdW  Elec       q    Type
REMARK                         _______ _______ _______ _____ _____    ______ ____
ROOT
ATOM      1  C7  UNL     1     -19.852  12.802  37.603  0.00  0.00    +0.139 A 
ATOM      2  C8  UNL     1     -19.287  12.664  36.394  0.00  0.00    +0.098 A 
ATOM      3  C9  UNL     1     -20.049  12.009  35.322  0.00  0.00    +0.197 A 
ATOM      4  O1  UNL     1     -19.579  11.852  34.201  0.00  0.00    -0.287 OA
ATOM      5  C10 UNL     1     -21.403  11.549  35.648  0.00  0.00    +0.105 A 
ATOM      6  C11 UNL     1     -22.213  10.914  34.701  0.00  0.00    +0.135 A 
ATOM      7  C12 UNL     1     -23.495  10.491  35.044  0.00  0.00    +0.091 A 
ATOM      8  C13 UNL     1     -23.958  10.709  36.339  0.00  0.00    +0.124 A 
ATOM      9  C14 UNL     1     -23.161  11.340  37.291  0.00  0.00    +0.092 A 
ATOM     10  C15 UNL     1     -21.878  11.762  36.941  0.00  0.00    +0.146 A 
ATOM     11  O2  UNL     1     -21.136  12.380  37.916  0.00  0.00    -0.454 OA
ENDROOT
BRANCH   1  17
ATOM     12  C1  UNL     1     -18.723  14.793  38.593  0.00  0.00    +0.015 A 
ATOM     13  C2  UNL     1     -18.058  15.439  39.641  0.00  0.00    +0.046 A 
ATOM     14  C3  UNL     1     -17.819  14.751  40.825  0.00  0.00    +0.117 A 
ATOM     15  C4  UNL     1     -18.236  13.434  40.977  0.00  0.00    +0.046 A 
ATOM     16  C5  UNL     1     -18.899  12.791  39.929  0.00  0.00    +0.015 A 
ATOM     17  C6  UNL     1     -19.144  13.459  38.719  0.00  0.00    +0.018 A 
BRANCH  14  18
ATOM     18  O5  UNL     1     -17.177  15.338  41.872  0.00  0.00    -0.507 OA
ATOM     19  H10 UNL     1     -17.056  16.282  41.675  0.00  0.00    +0.292 HD
ENDBRANCH  14  18
ENDBRANCH   1  17
BRANCH   8  20
ATOM     20  O3  UNL     1     -25.205  10.312  36.721  0.00  0.00    -0.507 OA
ATOM     21  H8  UNL     1     -25.518  10.901  37.429  0.00  0.00    +0.292 HD
ENDBRANCH   8  20
BRANCH   6  22
ATOM     22  O4  UNL     1     -21.808  10.676  33.415  0.00  0.00    -0.506 OA
ATOM     23  H9  UNL     1     -22.368  11.216  32.812  0.00  0.00    +0.292 HD
ENDBRANCH   6  22
TORSDOF 4
ENDMDL
MODEL 8
REMARK VINA RESULT:    -6.914      1.775      6.717
REMARK INTER + INTRA:          -8.211
REMARK INTER:                  -7.948
REMARK INTRA:                  -0.263
REMARK UNBOUND:                -0.286
REMARK  Name = data/mahkota_dewa_dn/results/docking/ligands/pdb/Apigenin.pdb
REMARK  4 active torsions:
REMARK  status: ('A' for Active; 'I' for Inactive)
REMARK    1  A    between atoms: C3_3  and  O5_20
REMARK    2  A    between atoms: C6_6  and  C7_7
REMARK    3  A    between atoms: C11_12  and  O4_19
REMARK    4  A    between atoms: C13_14  and  O3_18
REMARK                            x       y       z     vdW  Elec       q    Type
REMARK                         _______ _______ _______ _____ _____    ______ ____
ROOT
ATOM      1  C7  UNL     1     -16.965  11.707  40.098  0.00  0.00    +0.139 A 
ATOM      2  C8  UNL     1     -15.647  11.850  40.301  0.00  0.00    +0.098 A 
ATOM      3  C9  UNL     1     -14.878  10.709  40.817  0.00  0.00    +0.197 A 
ATOM      4  O1  UNL     1     -13.673  10.785  41.025  0.00  0.00    -0.287 OA
ATOM      5  C10 UNL     1     -15.615   9.467  41.075  0.00  0.00    +0.105 A 
ATOM      6  C11 UNL     1     -14.979   8.323  41.567  0.00  0.00    +0.135 A 
ATOM      7  C12 UNL     1     -15.709   7.159  41.800  0.00  0.00    +0.091 A 
ATOM      8  C13 UNL     1     -17.076   7.151  41.536  0.00  0.00    +0.124 A 
ATOM      9  C14 UNL     1     -17.721   8.285  41.046  0.00  0.00    +0.092 A 
ATOM     10  C15 UNL     1     -16.984   9.447  40.815  0.00  0.00    +0.146 A 
ATOM     11  O2  UNL     1     -17.667  10.533  40.329  0.00  0.00    -0.454 OA
ENDROOT
BRANCH   1  17
ATOM     12  C1  UNL     1     -18.024  12.916  38.191  0.00  0.00    +0.015 A 
ATOM     13  C2  UNL     1     -18.812  13.948  37.670  0.00  0.00    +0.046 A 
ATOM     14  C3  UNL     1     -19.377  14.877  38.535  0.00  0.00    +0.117 A 
ATOM     15  C4  UNL     1     -19.170  14.789  39.906  0.00  0.00    +0.046 A 
ATOM     16  C5  UNL     1     -18.383  13.758  40.424  0.00  0.00    +0.015 A 
ATOM     17  C6  UNL     1     -17.792  12.811  39.572  0.00  0.00    +0.018 A 
BRANCH  14  18
ATOM     18  O5  UNL     1     -20.151  15.899  38.075  0.00  0.00    -0.507 OA
ATOM     19  H10 UNL     1     -19.951  16.043  37.134  0.00  0.00    +0.292 HD
ENDBRANCH  14  18
ENDBRANCH   1  17
BRANCH   8  20
ATOM     20  O3  UNL     1     -17.832   6.037  41.748  0.00  0.00    -0.507 OA
ATOM     21  H8  UNL     1     -17.258   5.254  41.699  0.00  0.00    +0.292 HD
ENDBRANCH   8  20
BRANCH   6  22
ATOM     22  O4  UNL     1     -13.639   8.275  41.843  0.00  0.00    -0.506 OA
ATOM     23  H9  UNL     1     -13.468   8.836  42.634  0.00  0.00    +0.292 HD
ENDBRANCH   6  22
TORSDOF 4
ENDMDL
MODEL 9
REMARK VINA RESULT:    -6.766      3.547      5.681
REMARK INTER + INTRA:          -8.041
REMARK INTER:                  -7.770
REMARK INTRA:                  -0.271
REMARK UNBOUND:                -0.286
REMARK  Name = data/mahkota_dewa_dn/results/docking/ligands/pdb/Apigenin.pdb
REMARK  4 active torsions:
REMARK  status: ('A' for Active; 'I' for Inactive)
REMARK    1  A    between atoms: C3_3  and  O5_20
REMARK    2  A    between atoms: C6_6  and  C7_7
REMARK    3  A    between atoms: C11_12  and  O4_19
REMARK    4  A    between atoms: C13_14  and  O3_18
REMARK                            x       y       z     vdW  Elec       q    Type
REMARK                         _______ _______ _______ _____ _____    ______ ____
ROOT
ATOM      1  C7  UNL     1     -17.568  11.645  38.872  0.00  0.00    +0.139 A 
ATOM      2  C8  UNL     1     -17.356  11.929  37.579  0.00  0.00    +0.098 A 
ATOM      3  C9  UNL     1     -17.683  10.918  36.564  0.00  0.00    +0.197 A 
ATOM      4  O1  UNL     1     -17.505  11.123  35.369  0.00  0.00    -0.287 OA
ATOM      5  C10 UNL     1     -18.236   9.646  37.042  0.00  0.00    +0.105 A 
ATOM      6  C11 UNL     1     -18.582   8.617  36.160  0.00  0.00    +0.135 A 
ATOM      7  C12 UNL     1     -19.105   7.421  36.647  0.00  0.00    +0.091 A 
ATOM      8  C13 UNL     1     -19.281   7.266  38.019  0.00  0.00    +0.124 A 
ATOM      9  C14 UNL     1     -18.941   8.284  38.907  0.00  0.00    +0.092 A 
ATOM     10  C15 UNL     1     -18.417   9.479  38.414  0.00  0.00    +0.146 A 
ATOM     11  O2  UNL     1     -18.101  10.450  39.330  0.00  0.00    -0.454 OA
ENDROOT
BRANCH   1  17
ATOM     12  C1  UNL     1     -18.063  13.772  40.078  0.00  0.00    +0.015 A 
ATOM     13  C2  UNL     1     -17.805  14.705  41.087  0.00  0.00    +0.046 A 
ATOM     14  C3  UNL     1     -16.752  14.485  41.967  0.00  0.00    +0.117 A 
ATOM     15  C4  UNL     1     -15.960  13.349  41.857  0.00  0.00    +0.046 A 
ATOM     16  C5  UNL     1     -16.220  12.418  40.849  0.00  0.00    +0.015 A 
ATOM     17  C6  UNL     1     -17.270  12.621  39.939  0.00  0.00    +0.018 A 
BRANCH  14  18
ATOM     18  O5  UNL     1     -16.464  15.366  42.966  0.00  0.00    -0.507 OA
ATOM     19  H10 UNL     1     -16.158  16.199  42.569  0.00  0.00    +0.292 HD
ENDBRANCH  14  18
ENDBRANCH   1  17
BRANCH   8  20
ATOM     20  O3  UNL     1     -19.789   6.115  38.543  0.00  0.00    -0.507 OA
ATOM     21  H8  UNL     1     -20.562   6.334  39.091  0.00  0.00    +0.292 HD
ENDBRANCH   8  20
BRANCH   6  22
ATOM     22  O4  UNL     1     -18.431   8.716  34.803  0.00  0.00    -0.506 OA
ATOM     23  H9  UNL     1     -18.972   8.011  34.381  0.00  0.00    +0.292 HD
ENDBRANCH   6  22
TORSDOF 4
ENDMDL
