MODEL 1
REMARK VINA RESULT:    -7.925      0.000      0.000
REMARK INTER + INTRA:          -9.615
REMARK INTER:                  -9.314
REMARK INTRA:                  -0.300
REMARK UNBOUND:                -0.300
REMARK  Name = data/mahkota_dewa_dn/results/docking/ligands/pdb/Luteolin.pdb
REMARK  5 active torsions:
REMARK  status: ('A' for Active; 'I' for Inactive)
REMARK    1  A    between atoms: C3_3  and  O6_21
REMARK    2  A    between atoms: C4_4  and  O5_20
REMARK    3  A    between atoms: C6_6  and  C7_7
REMARK    4  A    between atoms: C11_12  and  O4_19
REMARK    5  A    between atoms: C13_14  and  O3_18
REMARK                            x       y       z     vdW  Elec       q    Type
REMARK                         _______ _______ _______ _____ _____    ______ ____
ROOT
ATOM      1  C7  UNL     1     -17.038  12.177  40.566  0.00  0.00    +0.139 A 
ATOM      2  C8  UNL     1     -16.758  13.424  40.973  0.00  0.00    +0.098 A 
ATOM      3  C9  UNL     1     -17.696  14.507  40.649  0.00  0.00    +0.197 A 
ATOM      4  O1  UNL     1     -17.482  15.666  40.988  0.00  0.00    -0.287 OA
ATOM      5  C10 UNL     1     -18.902  14.145  39.897  0.00  0.00    +0.105 A 
ATOM      6  C11 UNL     1     -19.860  15.100  39.538  0.00  0.00    +0.135 A 
ATOM      7  C12 UNL     1     -20.994  14.721  38.824  0.00  0.00    +0.091 A 
ATOM      8  C13 UNL     1     -21.161  13.384  38.473  0.00  0.00    +0.124 A 
ATOM      9  C14 UNL     1     -20.214  12.426  38.825  0.00  0.00    +0.092 A 
ATOM     10  C15 UNL     1     -19.080  12.810  39.539  0.00  0.00    +0.146 A 
ATOM     11  O2  UNL     1     -18.179  11.826  39.861  0.00  0.00    -0.454 OA
ENDROOT
BRANCH   1  17
ATOM     12  C1  UNL     1     -14.755  11.125  40.642  0.00  0.00    +0.015 A 
ATOM     13  C2  UNL     1     -13.913  10.042  40.921  0.00  0.00    +0.050 A 
ATOM     14  C3  UNL     1     -14.463   8.871  41.424  0.00  0.00    +0.158 A 
ATOM     15  C4  UNL     1     -15.834   8.778  41.642  0.00  0.00    +0.159 A 
ATOM     16  C5  UNL     1     -16.676   9.847  41.366  0.00  0.00    +0.060 A 
ATOM     17  C6  UNL     1     -16.142  11.044  40.867  0.00  0.00    +0.021 A 
BRANCH  15  18
ATOM     18  O5  UNL     1     -16.368   7.621  42.136  0.00  0.00    -0.503 OA
ATOM     19  H9  UNL     1     -16.199   7.663  43.098  0.00  0.00    +0.292 HD
ENDBRANCH  15  18
BRANCH  14  20
ATOM     20  O6  UNL     1     -13.696   7.778  41.718  0.00  0.00    -0.503 OA
ATOM     21  H10 UNL     1     -14.038   7.377  42.535  0.00  0.00    +0.292 HD
ENDBRANCH  14  20
ENDBRANCH   1  17
BRANCH   8  22
ATOM     22  O3  UNL     1     -22.254  12.966  37.774  0.00  0.00    -0.507 OA
ATOM     23  H7  UNL     1     -22.662  13.734  37.340  0.00  0.00    +0.292 HD
ENDBRANCH   8  22
BRANCH   6  24
ATOM     24  O4  UNL     1     -19.746  16.426  39.857  0.00  0.00    -0.506 OA
ATOM     25  H8  UNL     1     -19.628  16.497  40.832  0.00  0.00    +0.292 HD
ENDBRANCH   6  24
TORSDOF 5
ENDMDL
MODEL 2
REMARK VINA RESULT:    -7.913      2.586      6.932
REMARK INTER + INTRA:          -9.601
REMARK INTER:                  -9.317
REMARK INTRA:                  -0.284
REMARK UNBOUND:                -0.300
REMARK  Name = data/mahkota_dewa_dn/results/docking/ligands/pdb/Luteolin.pdb
REMARK  5 active torsions:
REMARK  status: ('A' for Active; 'I' for Inactive)
REMARK    1  A    between atoms: C3_3  and  O6_21
REMARK    2  A    between atoms: C4_4  and  O5_20
REMARK    3  A    between atoms: C6_6  and  C7_7
REMARK    4  A    between atoms: C11_12  and  O4_19
REMARK    5  A    between atoms: C13_14  and  O3_18
REMARK                            x       y       z     vdW  Elec       q    Type
REMARK                         _______ _______ _______ _____ _____    ______ ____
ROOT
ATOM      1  C7  UNL     1     -19.985  12.559  37.740  0.00  0.00    +0.139 A 
ATOM      2  C8  UNL     1     -20.148  13.632  38.529  0.00  0.00    +0.098 A 
ATOM      3  C9  UNL     1     -19.134  13.923  39.552  0.00  0.00    +0.197 A 
ATOM      4  O1  UNL     1     -19.240  14.884  40.307  0.00  0.00    -0.287 OA
ATOM      5  C10 UNL     1     -17.988  13.012  39.638  0.00  0.00    +0.105 A 
ATOM      6  C11 UNL     1     -16.967  13.201  40.576  0.00  0.00    +0.135 A 
ATOM      7  C12 UNL     1     -15.892  12.316  40.629  0.00  0.00    +0.091 A 
ATOM      8  C13 UNL     1     -15.848  11.247  39.739  0.00  0.00    +0.124 A 
ATOM      9  C14 UNL     1     -16.859  11.050  38.802  0.00  0.00    +0.092 A 
ATOM     10  C15 UNL     1     -17.933  11.937  38.753  0.00  0.00    +0.146 A 
ATOM     11  O2  UNL     1     -18.901  11.697  37.810  0.00  0.00    -0.454 OA
ENDROOT
BRANCH   1  17
ATOM     12  C1  UNL     1     -20.547  11.893  35.381  0.00  0.00    +0.015 A 
ATOM     13  C2  UNL     1     -21.480  11.579  34.385  0.00  0.00    +0.050 A 
ATOM     14  C3  UNL     1     -22.832  11.593  34.697  0.00  0.00    +0.158 A 
ATOM     15  C4  UNL     1     -23.251  11.919  35.983  0.00  0.00    +0.159 A 
ATOM     16  C5  UNL     1     -22.333  12.234  36.976  0.00  0.00    +0.060 A 
ATOM     17  C6  UNL     1     -20.961  12.217  36.687  0.00  0.00    +0.021 A 
BRANCH  15  18
ATOM     18  O5  UNL     1     -24.585  11.933  36.282  0.00  0.00    -0.503 OA
ATOM     19  H9  UNL     1     -24.997  11.382  35.587  0.00  0.00    +0.292 HD
ENDBRANCH  15  18
BRANCH  14  20
ATOM     20  O6  UNL     1     -23.792  11.295  33.771  0.00  0.00    -0.503 OA
ATOM     21  H10 UNL     1     -24.093  10.383  33.926  0.00  0.00    +0.292 HD
ENDBRANCH  14  20
ENDBRANCH   1  17
BRANCH   8  22
ATOM     22  O3  UNL     1     -14.817  10.355  39.754  0.00  0.00    -0.507 OA
ATOM     23  H7  UNL     1     -14.709   9.986  38.861  0.00  0.00    +0.292 HD
ENDBRANCH   8  22
BRANCH   6  24
ATOM     24  O4  UNL     1     -16.961  14.234  41.473  0.00  0.00    -0.506 OA
ATOM     25  H8  UNL     1     -16.606  13.897  42.327  0.00  0.00    +0.292 HD
ENDBRANCH   6  24
TORSDOF 5
ENDMDL
MODEL 3
REMARK VINA RESULT:    -7.887      2.838      6.623
REMARK INTER + INTRA:          -9.570
REMARK INTER:                  -9.277
REMARK INTRA:                  -0.293
REMARK UNBOUND:                -0.300
REMARK  Name = data/mahkota_dewa_dn/results/docking/ligands/pdb/Luteolin.pdb
REMARK  5 active torsions:
REMARK  status: ('A' for Active; 'I' for Inactive)
REMARK    1  A    between atoms: C3_3  and  O6_21
REMARK    2  A    between atoms: C4_4  and  O5_20
REMARK    3  A    between atoms: C6_6  and  C7_7
REMARK    4  A    between atoms: C11_12  and  O4_19
REMARK    5  A    between atoms: C13_14  and  O3_18
REMARK                            x       y       z     vdW  Elec       q    Type
REMARK                         _______ _______ _______ _____ _____    ______ ____
ROOT
ATOM      1  C7  UNL     1     -19.399  12.879  37.741  0.00  0.00    +0.139 A 
ATOM      2  C8  UNL     1     -19.788  13.983  38.394  0.00  0.00    +0.098 A 
ATOM      3  C9  UNL     1     -19.032  14.413  39.579  0.00  0.00    +0.197 A 
ATOM      4  O1  UNL     1     -19.352  15.408  40.220  0.00  0.00    -0.287 OA
ATOM      5  C10 UNL     1     -17.878  13.596  39.969  0.00  0.00    +0.105 A 
ATOM      6  C11 UNL     1     -17.090  13.918  41.080  0.00  0.00    +0.135 A 
ATOM      7  C12 UNL     1     -16.000  13.121  41.421  0.00  0.00    +0.091 A 
ATOM      8  C13 UNL     1     -15.706  12.004  40.644  0.00  0.00    +0.124 A 
ATOM      9  C14 UNL     1     -16.483  11.674  39.537  0.00  0.00    +0.092 A 
ATOM     10  C15 UNL     1     -17.573  12.475  39.199  0.00  0.00    +0.146 A 
ATOM     11  O2  UNL     1     -18.305  12.106  38.098  0.00  0.00    -0.454 OA
ENDROOT
BRANCH   1  17
ATOM     12  C1  UNL     1     -21.496  12.161  36.552  0.00  0.00    +0.015 A 
ATOM     13  C2  UNL     1     -22.160  11.697  35.411  0.00  0.00    +0.050 A 
ATOM     14  C3  UNL     1     -21.432  11.466  34.252  0.00  0.00    +0.158 A 
ATOM     15  C4  UNL     1     -20.059  11.692  34.231  0.00  0.00    +0.159 A 
ATOM     16  C5  UNL     1     -19.392  12.150  35.359  0.00  0.00    +0.060 A 
ATOM     17  C6  UNL     1     -20.109  12.400  36.539  0.00  0.00    +0.021 A 
BRANCH  15  18
ATOM     18  O5  UNL     1     -19.349  11.461  33.086  0.00  0.00    -0.503 OA
ATOM     19  H9  UNL     1     -19.860  10.775  32.614  0.00  0.00    +0.292 HD
ENDBRANCH  15  18
BRANCH  14  20
ATOM     20  O6  UNL     1     -22.021  11.014  33.104  0.00  0.00    -0.503 OA
ATOM     21  H10 UNL     1     -22.789  10.470  33.349  0.00  0.00    +0.292 HD
ENDBRANCH  14  20
ENDBRANCH   1  17
BRANCH   8  22
ATOM     22  O3  UNL     1     -14.650  11.194  40.939  0.00  0.00    -0.507 OA
ATOM     23  H7  UNL     1     -13.843  11.734  40.985  0.00  0.00    +0.292 HD
ENDBRANCH   8  22
BRANCH   6  24
ATOM     24  O4  UNL     1     -17.335  15.004  41.877  0.00  0.00    -0.506 OA
ATOM     25  H8  UNL     1     -18.245  14.917  42.242  0.00  0.00    +0.292 HD
ENDBRANCH   6  24
TORSDOF 5
ENDMDL
MODEL 4
REMARK VINA RESULT:    -7.732      2.278      6.724
REMARK INTER + INTRA:          -9.388
REMARK INTER:                  -9.086
REMARK INTRA:                  -0.302
REMARK UNBOUND:                -0.300
REMARK  Name = data/mahkota_dewa_dn/results/docking/ligands/pdb/Luteolin.pdb
REMARK  5 active torsions:
REMARK  status: ('A' for Active; 'I' for Inactive)
REMARK    1  A    between atoms: C3_3  and  O6_21
REMARK    2  A    between atoms: C4_4  and  O5_20
REMARK    3  A    between atoms: C6_6  and  C7_7
REMARK    4  A    between atoms: C11_12  and  O4_19
REMARK    5  A    between atoms: C13_14  and  O3_18
REMARK                            x       y       z     vdW  Elec       q    Type
REMARK                         _______ _______ _______ _____ _____    ______ ____
ROOT
ATOM      1  C7  UNL     1     -20.690  12.484  38.805  0.00  0.00    +0.139 A 
ATOM      2  C8  UNL     1     -20.805  13.777  39.143  0.00  0.00    +0.098 A 
ATOM      3  C9  UNL     1     -19.710  14.419  39.884  0.00  0.00    +0.197 A 
ATOM      4  O1  UNL     1     -19.770  15.595  40.227  0.00  0.00    -0.287 OA
ATOM      5  C10 UNL     1     -18.541  13.593  40.201  0.00  0.00    +0.105 A 
ATOM      6  C11 UNL     1     -17.445  14.108  40.901  0.00  0.00    +0.135 A 
ATOM      7  C12 UNL     1     -16.350  13.295  41.186  0.00  0.00    +0.091 A 
ATOM      8  C13 UNL     1     -16.362  11.968  40.764  0.00  0.00    +0.124 A 
ATOM      9  C14 UNL     1     -17.448  11.445  40.067  0.00  0.00    +0.092 A 
ATOM     10  C15 UNL     1     -18.541  12.263  39.785  0.00  0.00    +0.146 A 
ATOM     11  O2  UNL     1     -19.584  11.698  39.095  0.00  0.00    -0.454 OA
ENDROOT
BRANCH   1  17
ATOM     12  C1  UNL     1     -21.786  10.377  37.979  0.00  0.00    +0.015 A 
ATOM     13  C2  UNL     1     -22.788   9.719  37.254  0.00  0.00    +0.050 A 
ATOM     14  C3  UNL     1     -23.753  10.471  36.599  0.00  0.00    +0.158 A 
ATOM     15  C4  UNL     1     -23.719  11.861  36.660  0.00  0.00    +0.159 A 
ATOM     16  C5  UNL     1     -22.727  12.521  37.374  0.00  0.00    +0.060 A 
ATOM     17  C6  UNL     1     -21.748  11.782  38.053  0.00  0.00    +0.021 A 
BRANCH  15  18
ATOM     18  O5  UNL     1     -24.671  12.595  36.011  0.00  0.00    -0.503 OA
ATOM     19  H9  UNL     1     -25.516  12.309  36.411  0.00  0.00    +0.292 HD
ENDBRANCH  15  18
BRANCH  14  20
ATOM     20  O6  UNL     1     -24.757   9.890  35.877  0.00  0.00    -0.503 OA
ATOM     21  H10 UNL     1     -24.910  10.428  35.081  0.00  0.00    +0.292 HD
ENDBRANCH  14  20
ENDBRANCH   1  17
BRANCH   8  22
ATOM     22  O3  UNL     1     -15.314  11.134  41.019  0.00  0.00    -0.507 OA
ATOM     23  H7  UNL     1     -14.717  11.137  40.252  0.00  0.00    +0.292 HD
ENDBRANCH   8  22
BRANCH   6  24
ATOM     24  O4  UNL     1     -17.381  15.403  41.338  0.00  0.00    -0.506 OA
ATOM     25  H8  UNL     1     -17.297  15.988  40.550  0.00  0.00    +0.292 HD
ENDBRANCH   6  24
TORSDOF 5
ENDMDL
MODEL 5
REMARK VINA RESULT:    -7.580      2.859      5.023
REMARK INTER + INTRA:          -9.209
REMARK INTER:                  -8.919
REMARK INTRA:                  -0.290
REMARK UNBOUND:                -0.300
REMARK  Name = data/mahkota_dewa_dn/results/docking/ligands/pdb/Luteolin.pdb
REMARK  5 active torsions:
REMARK  status: ('A' for Active; 'I' for Inactive)
REMARK    1  A    between atoms: C3_3  and  O6_21
REMARK    2  A    between atoms: C4_4  and  O5_20
REMARK    3  A    between atoms: C6_6  and  C7_7
REMARK    4  A    between atoms: C11_12  and  O4_19
REMARK    5  A    between atoms: C13_14  and  O3_18
REMARK                            x       y       z     vdW  Elec       q    Type
REMARK                         _______ _______ _______ _____ _____    ______ ____
ROOT
ATOM      1  C7  UNL     1     -18.890  12.495  37.932  0.00  0.00    +0.139 A 
ATOM      2  C8  UNL     1     -18.271  12.001  36.850  0.00  0.00    +0.098 A 
ATOM      3  C9  UNL     1     -19.078  11.590  35.693  0.00  0.00    +0.197 A 
ATOM      4  O1  UNL     1     -18.563  11.121  34.683  0.00  0.00    -0.287 OA
ATOM      5  C10 UNL     1     -20.531  11.760  35.796  0.00  0.00    +0.105 A 
ATOM      6  C11 UNL     1     -21.390  11.401  34.751  0.00  0.00    +0.135 A 
ATOM      7  C12 UNL     1     -22.766  11.577  34.883  0.00  0.00    +0.091 A 
ATOM      8  C13 UNL     1     -23.272  12.112  36.064  0.00  0.00    +0.124 A 
ATOM      9  C14 UNL     1     -22.427  12.472  37.111  0.00  0.00    +0.092 A 
ATOM     10  C15 UNL     1     -21.050  12.294  36.974  0.00  0.00    +0.146 A 
ATOM     11  O2  UNL     1     -20.263  12.665  38.035  0.00  0.00    -0.454 OA
ENDROOT
BRANCH   1  17
ATOM     12  C1  UNL     1     -18.516  14.080  39.848  0.00  0.00    +0.015 A 
ATOM     13  C2  UNL     1     -17.790  14.496  40.971  0.00  0.00    +0.050 A 
ATOM     14  C3  UNL     1     -16.678  13.765  41.366  0.00  0.00    +0.158 A 
ATOM     15  C4  UNL     1     -16.292  12.636  40.651  0.00  0.00    +0.159 A 
ATOM     16  C5  UNL     1     -17.005  12.218  39.535  0.00  0.00    +0.060 A 
ATOM     17  C6  UNL     1     -18.137  12.934  39.122  0.00  0.00    +0.021 A 
BRANCH  15  18
ATOM     18  O5  UNL     1     -15.195  11.922  41.045  0.00  0.00    -0.503 OA
ATOM     19  H9  UNL     1     -14.945  12.312  41.906  0.00  0.00    +0.292 HD
ENDBRANCH  15  18
BRANCH  14  20
ATOM     20  O6  UNL     1     -15.928  14.117  42.453  0.00  0.00    -0.503 OA
ATOM     21  H10 UNL     1     -16.275  13.644  43.229  0.00  0.00    +0.292 HD
ENDBRANCH  14  20
ENDBRANCH   1  17
BRANCH   8  22
ATOM     22  O3  UNL     1     -24.611  12.302  36.240  0.00  0.00    -0.507 OA
ATOM     23  H7  UNL     1     -24.746  12.908  36.988  0.00  0.00    +0.292 HD
ENDBRANCH   8  22
BRANCH   6  24
ATOM     24  O4  UNL     1     -20.946  10.872  33.570  0.00  0.00    -0.506 OA
ATOM     25  H8  UNL     1     -20.510  10.011  33.765  0.00  0.00    +0.292 HD
ENDBRANCH   6  24
TORSDOF 5
ENDMDL
MODEL 6
REMARK VINA RESULT:    -7.523      2.849      5.070
REMARK INTER + INTRA:          -9.143
REMARK INTER:                  -8.834
REMARK INTRA:                  -0.309
REMARK UNBOUND:                -0.300
REMARK  Name = data/mahkota_dewa_dn/results/docking/ligands/pdb/Luteolin.pdb
REMARK  5 active torsions:
REMARK  status: ('A' for Active; 'I' for Inactive)
REMARK    1  A    between atoms: C3_3  and  O6_21
REMARK    2  A    between atoms: C4_4  and  O5_20
REMARK    3  A    between atoms: C6_6  and  C7_7
REMARK    4  A    between atoms: C11_12  and  O4_19
REMARK    5  A    between atoms: C13_14  and  O3_18
REMARK                            x       y       z     vdW  Elec       q    Type
REMARK                         _______ _______ _______ _____ _____    ______ ____
ROOT
ATOM      1  C7  UNL     1     -19.443  12.816  38.504  0.00  0.00    +0.139 A 
ATOM      2  C8  UNL     1     -20.767  12.878  38.709  0.00  0.00    +0.098 A 
ATOM      3  C9  UNL     1     -21.675  12.557  37.600  0.00  0.00    +0.197 A 
ATOM      4  O1  UNL     1     -22.894  12.610  37.730  0.00  0.00    -0.287 OA
ATOM      5  C10 UNL     1     -21.063  12.174  36.323  0.00  0.00    +0.105 A 
ATOM      6  C11 UNL     1     -21.838  11.848  35.204  0.00  0.00    +0.135 A 
ATOM      7  C12 UNL     1     -21.224  11.488  34.007  0.00  0.00    +0.091 A 
ATOM      8  C13 UNL     1     -19.834  11.457  33.940  0.00  0.00    +0.124 A 
ATOM      9  C14 UNL     1     -19.053  11.779  35.047  0.00  0.00    +0.092 A 
ATOM     10  C15 UNL     1     -19.673  12.140  36.243  0.00  0.00    +0.146 A 
ATOM     11  O2  UNL     1     -18.857  12.447  37.303  0.00  0.00    -0.454 OA
ENDROOT
BRANCH   1  17
ATOM     12  C1  UNL     1     -18.703  14.160  40.497  0.00  0.00    +0.015 A 
ATOM     13  C2  UNL     1     -17.777  14.445  41.507  0.00  0.00    +0.050 A 
ATOM     14  C3  UNL     1     -16.619  13.685  41.598  0.00  0.00    +0.158 A 
ATOM     15  C4  UNL     1     -16.384  12.656  40.691  0.00  0.00    +0.159 A 
ATOM     16  C5  UNL     1     -17.297  12.368  39.684  0.00  0.00    +0.060 A 
ATOM     17  C6  UNL     1     -18.478  13.116  39.579  0.00  0.00    +0.021 A 
BRANCH  15  18
ATOM     18  O5  UNL     1     -15.241  11.913  40.785  0.00  0.00    -0.503 OA
ATOM     19  H9  UNL     1     -14.517  12.567  40.728  0.00  0.00    +0.292 HD
ENDBRANCH  15  18
BRANCH  14  20
ATOM     20  O6  UNL     1     -15.677  13.911  42.561  0.00  0.00    -0.503 OA
ATOM     21  H10 UNL     1     -16.080  13.736  43.429  0.00  0.00    +0.292 HD
ENDBRANCH  14  20
ENDBRANCH   1  17
BRANCH   8  22
ATOM     22  O3  UNL     1     -19.188  11.111  32.790  0.00  0.00    -0.507 OA
ATOM     23  H7  UNL     1     -19.848  10.950  32.095  0.00  0.00    +0.292 HD
ENDBRANCH   8  22
BRANCH   6  24
ATOM     24  O4  UNL     1     -23.207  11.863  35.216  0.00  0.00    -0.506 OA
ATOM     25  H8  UNL     1     -23.517  12.198  34.343  0.00  0.00    +0.292 HD
ENDBRANCH   6  24
TORSDOF 5
ENDMDL
MODEL 7
REMARK VINA RESULT:    -7.456      3.823      6.657
REMARK INTER + INTRA:          -9.064
REMARK INTER:                  -8.790
REMARK INTRA:                  -0.274
REMARK UNBOUND:                -0.300
REMARK  Name = data/mahkota_dewa_dn/results/docking/ligands/pdb/Luteolin.pdb
REMARK  5 active torsions:
REMARK  status: ('A' for Active; 'I' for Inactive)
REMARK    1  A    between atoms: C3_3  and  O6_21
REMARK    2  A    between atoms: C4_4  and  O5_20
REMARK    3  A    between atoms: C6_6  and  C7_7
REMARK    4  A    between atoms: C11_12  and  O4_19
REMARK    5  A    between atoms: C13_14  and  O3_18
REMARK                            x       y       z     vdW  Elec       q    Type
REMARK                         _______ _______ _______ _____ _____    ______ ____
ROOT
ATOM      1  C7  UNL     1     -20.816  12.852  37.612  0.00  0.00    +0.139 A 
ATOM      2  C8  UNL     1     -22.115  12.622  37.851  0.00  0.00    +0.098 A 
ATOM      3  C9  UNL     1     -22.936  12.013  36.795  0.00  0.00    +0.197 A 
ATOM      4  O1  UNL     1     -24.132  11.792  36.958  0.00  0.00    -0.287 OA
ATOM      5  C10 UNL     1     -22.266  11.682  35.534  0.00  0.00    +0.105 A 
ATOM      6  C11 UNL     1     -22.956  11.097  34.466  0.00  0.00    +0.135 A 
ATOM      7  C12 UNL     1     -22.289  10.795  33.281  0.00  0.00    +0.091 A 
ATOM      8  C13 UNL     1     -20.930  11.081  33.175  0.00  0.00    +0.124 A 
ATOM      9  C14 UNL     1     -20.234  11.662  34.232  0.00  0.00    +0.092 A 
ATOM     10  C15 UNL     1     -20.907  11.963  35.415  0.00  0.00    +0.146 A 
ATOM     11  O2  UNL     1     -20.173  12.535  36.424  0.00  0.00    -0.454 OA
ENDROOT
BRANCH   1  17
ATOM     12  C1  UNL     1     -19.357  12.672  39.653  0.00  0.00    +0.015 A 
ATOM     13  C2  UNL     1     -18.531  13.251  40.624  0.00  0.00    +0.050 A 
ATOM     14  C3  UNL     1     -18.284  14.616  40.575  0.00  0.00    +0.158 A 
ATOM     15  C4  UNL     1     -18.856  15.396  39.574  0.00  0.00    +0.159 A 
ATOM     16  C5  UNL     1     -19.679  14.830  38.609  0.00  0.00    +0.060 A 
ATOM     17  C6  UNL     1     -19.935  13.452  38.633  0.00  0.00    +0.021 A 
BRANCH  15  18
ATOM     18  O5  UNL     1     -18.609  16.739  39.534  0.00  0.00    -0.503 OA
ATOM     19  H9  UNL     1     -19.232  17.083  38.863  0.00  0.00    +0.292 HD
ENDBRANCH  15  18
BRANCH  14  20
ATOM     20  O6  UNL     1     -17.486  15.241  41.491  0.00  0.00    -0.503 OA
ATOM     21  H10 UNL     1     -16.644  15.468  41.058  0.00  0.00    +0.292 HD
ENDBRANCH  14  20
ENDBRANCH   1  17
BRANCH   8  22
ATOM     22  O3  UNL     1     -20.234  10.803  32.036  0.00  0.00    -0.507 OA
ATOM     23  H7  UNL     1     -20.842  10.413  31.385  0.00  0.00    +0.292 HD
ENDBRANCH   8  22
BRANCH   6  24
ATOM     24  O4  UNL     1     -24.290  10.795  34.516  0.00  0.00    -0.506 OA
ATOM     25  H8  UNL     1     -24.395   9.835  34.324  0.00  0.00    +0.292 HD
ENDBRANCH   6  24
TORSDOF 5
ENDMDL
MODEL 8
REMARK VINA RESULT:    -7.432      1.181      2.693
REMARK INTER + INTRA:          -9.036
REMARK INTER:                  -8.748
REMARK INTRA:                  -0.288
REMARK UNBOUND:                -0.300
REMARK  Name = data/mahkota_dewa_dn/results/docking/ligands/pdb/Luteolin.pdb
REMARK  5 active torsions:
REMARK  status: ('A' for Active; 'I' for Inactive)
REMARK    1  A    between atoms: C3_3  and  O6_21
REMARK    2  A    between atoms: C4_4  and  O5_20
REMARK    3  A    between atoms: C6_6  and  C7_7
REMARK    4  A    between atoms: C11_12  and  O4_19
REMARK    5  A    between atoms: C13_14  and  O3_18
REMARK                            x       y       z     vdW  Elec       q    Type
REMARK                         _______ _______ _______ _____ _____    ______ ____
ROOT
ATOM      1  C7  UNL     1     -17.420  11.047  40.070  0.00  0.00    +0.139 A 
ATOM      2  C8  UNL     1     -18.511  10.534  39.483  0.00  0.00    +0.098 A 
ATOM      3  C9  UNL     1     -19.532  11.449  38.954  0.00  0.00    +0.197 A 
ATOM      4  O1  UNL     1     -20.553  11.032  38.418  0.00  0.00    -0.287 OA
ATOM      5  C10 UNL     1     -19.280  12.886  39.096  0.00  0.00    +0.105 A 
ATOM      6  C11 UNL     1     -20.188  13.842  38.625  0.00  0.00    +0.135 A 
ATOM      7  C12 UNL     1     -19.917  15.200  38.776  0.00  0.00    +0.091 A 
ATOM      8  C13 UNL     1     -18.736  15.592  39.400  0.00  0.00    +0.124 A 
ATOM      9  C14 UNL     1     -17.826  14.650  39.872  0.00  0.00    +0.092 A 
ATOM     10  C15 UNL     1     -18.102  13.291  39.719  0.00  0.00    +0.146 A 
ATOM     11  O2  UNL     1     -17.172  12.406  40.202  0.00  0.00    -0.454 OA
ENDROOT
BRANCH   1  17
ATOM     12  C1  UNL     1     -14.992  10.494  40.427  0.00  0.00    +0.015 A 
ATOM     13  C2  UNL     1     -13.987   9.664  40.937  0.00  0.00    +0.050 A 
ATOM     14  C3  UNL     1     -14.344   8.517  41.633  0.00  0.00    +0.158 A 
ATOM     15  C4  UNL     1     -15.686   8.199  41.815  0.00  0.00    +0.159 A 
ATOM     16  C5  UNL     1     -16.690   9.015  41.311  0.00  0.00    +0.060 A 
ATOM     17  C6  UNL     1     -16.353  10.184  40.613  0.00  0.00    +0.021 A 
BRANCH  15  18
ATOM     18  O5  UNL     1     -16.031   7.067  42.500  0.00  0.00    -0.503 OA
ATOM     19  H9  UNL     1     -15.307   6.438  42.313  0.00  0.00    +0.292 HD
ENDBRANCH  15  18
BRANCH  14  20
ATOM     20  O6  UNL     1     -13.411   7.667  42.156  0.00  0.00    -0.503 OA
ATOM     21  H10 UNL     1     -13.868   6.865  42.463  0.00  0.00    +0.292 HD
ENDBRANCH  14  20
ENDBRANCH   1  17
BRANCH   8  22
ATOM     22  O3  UNL     1     -18.428  16.909  39.570  0.00  0.00    -0.507 OA
ATOM     23  H7  UNL     1     -17.876  17.201  38.825  0.00  0.00    +0.292 HD
ENDBRANCH   8  22
BRANCH   6  24
ATOM     24  O4  UNL     1     -21.363  13.512  38.005  0.00  0.00    -0.506 OA
ATOM     25  H8  UNL     1     -21.250  12.628  37.587  0.00  0.00    +0.292 HD
ENDBRANCH   6  24
TORSDOF 5
ENDMDL
MODEL 9
REMARK VINA RESULT:    -7.302      1.684      6.867
REMARK INTER + INTRA:          -8.883
REMARK INTER:                  -8.602
REMARK INTRA:                  -0.281
REMARK UNBOUND:                -0.300
REMARK  Name = data/mahkota_dewa_dn/results/docking/ligands/pdb/Luteolin.pdb
REMARK  5 active torsions:
REMARK  status: ('A' for Active; 'I' for Inactive)
REMARK    1  A    between atoms: C3_3  and  O6_21
REMARK    2  A    between atoms: C4_4  and  O5_20
REMARK    3  A    between atoms: C6_6  and  C7_7
REMARK    4  A    between atoms: C11_12  and  O4_19
REMARK    5  A    between atoms: C13_14  and  O3_18
REMARK                            x       y       z     vdW  Elec       q    Type
REMARK                         _______ _______ _______ _____ _____    ______ ____
ROOT
ATOM      1  C7  UNL     1     -16.912  11.672  39.824  0.00  0.00    +0.139 A 
ATOM      2  C8  UNL     1     -15.609  11.794  40.117  0.00  0.00    +0.098 A 
ATOM      3  C9  UNL     1     -14.922  10.679  40.784  0.00  0.00    +0.197 A 
ATOM      4  O1  UNL     1     -13.734  10.744  41.085  0.00  0.00    -0.287 OA
ATOM      5  C10 UNL     1     -15.717   9.484  41.081  0.00  0.00    +0.105 A 
ATOM      6  C11 UNL     1     -15.160   8.367  41.713  0.00  0.00    +0.135 A 
ATOM      7  C12 UNL     1     -15.944   7.248  41.979  0.00  0.00    +0.091 A 
ATOM      8  C13 UNL     1     -17.287   7.256  41.610  0.00  0.00    +0.124 A 
ATOM      9  C14 UNL     1     -17.852   8.362  40.981  0.00  0.00    +0.092 A 
ATOM     10  C15 UNL     1     -17.062   9.480  40.717  0.00  0.00    +0.146 A 
ATOM     11  O2  UNL     1     -17.669  10.543  40.095  0.00  0.00    -0.454 OA
ENDROOT
BRANCH   1  17
ATOM     12  C1  UNL     1     -18.440  12.495  38.004  0.00  0.00    +0.015 A 
ATOM     13  C2  UNL     1     -19.136  13.525  37.361  0.00  0.00    +0.050 A 
ATOM     14  C3  UNL     1     -19.047  14.817  37.860  0.00  0.00    +0.158 A 
ATOM     15  C4  UNL     1     -18.269  15.080  38.984  0.00  0.00    +0.159 A 
ATOM     16  C5  UNL     1     -17.573  14.065  39.627  0.00  0.00    +0.060 A 
ATOM     17  C6  UNL     1     -17.657  12.750  39.146  0.00  0.00    +0.021 A 
BRANCH  15  18
ATOM     18  O5  UNL     1     -18.184  16.355  39.469  0.00  0.00    -0.503 OA
ATOM     19  H9  UNL     1     -18.989  16.799  39.136  0.00  0.00    +0.292 HD
ENDBRANCH  15  18
BRANCH  14  20
ATOM     20  O6  UNL     1     -19.702  15.865  37.280  0.00  0.00    -0.503 OA
ATOM     21  H10 UNL     1     -20.633  15.611  37.154  0.00  0.00    +0.292 HD
ENDBRANCH  14  20
ENDBRANCH   1  17
BRANCH   8  22
ATOM     22  O3  UNL     1     -18.095   6.184  41.850  0.00  0.00    -0.507 OA
ATOM     23  H7  UNL     1     -18.232   6.104  42.810  0.00  0.00    +0.292 HD
ENDBRANCH   8  22
BRANCH   6  24
ATOM     24  O4  UNL     1     -13.847   8.306  42.097  0.00  0.00    -0.506 OA
ATOM     25  H8  UNL     1     -13.461   9.208  42.012  0.00  0.00    +0.292 HD
ENDBRANCH   6  24
TORSDOF 5
ENDMDL
