MODEL 1
REMARK VINA RESULT:    -8.915      0.000      0.000
REMARK INTER + INTRA:         -12.189
REMARK INTER:                 -11.521
REMARK INTRA:                  -0.668
REMARK UNBOUND:                -0.668
REMARK  Name = data/mahkota_dewa_dn/results/docking/ligands/pdb/Pinoresinol.pdb
REMARK  8 active torsions:
REMARK  status: ('A' for Active; 'I' for Inactive)
REMARK    1  A    between atoms: C1_1  and  O1_2
REMARK    2  A    between atoms: O1_2  and  C2_3
REMARK    3  A    between atoms: C4_5  and  C8_10
REMARK    4  A    between atoms: C7_8  and  O2_9
REMARK    5  A    between atoms: C13_17  and  C14_18
REMARK    6  A    between atoms: C16_20  and  O6_25
REMARK    7  A    between atoms: C17_21  and  O5_24
REMARK    8  A    between atoms: O6_25  and  C20_26
REMARK                            x       y       z     vdW  Elec       q    Type
REMARK                         _______ _______ _______ _____ _____    ______ ____
ROOT
ATOM      1  C8  UNL     1     -18.671  13.450  37.837  0.00  0.00    +0.154 C 
ATOM      2  O3  UNL     1     -18.070  12.459  36.938  0.00  0.00    -0.371 OA
ATOM      3  C9  UNL     1     -19.138  11.660  36.345  0.00  0.00    +0.167 C 
ATOM      4  C10 UNL     1     -20.366  12.471  36.617  0.00  0.00    +0.056 C 
ATOM      5  C11 UNL     1     -20.073  12.930  38.012  0.00  0.00    +0.056 C 
ATOM      6  C12 UNL     1     -21.301  13.741  38.283  0.00  0.00    +0.167 C 
ATOM      7  O4  UNL     1     -22.369  12.941  37.691  0.00  0.00    -0.371 OA
ATOM      8  C13 UNL     1     -21.767  11.951  36.791  0.00  0.00    +0.154 C 
ENDROOT
BRANCH   1  11
ATOM      9  C2  UNL     1     -16.379  12.673  40.814  0.00  0.00    +0.162 A 
ATOM     10  C3  UNL     1     -17.049  12.560  39.590  0.00  0.00    +0.055 A 
ATOM     11  C4  UNL     1     -17.921  13.568  39.143  0.00  0.00    -0.015 A 
ATOM     12  C5  UNL     1     -18.118  14.700  39.949  0.00  0.00    +0.010 A 
ATOM     13  C6  UNL     1     -17.460  14.823  41.173  0.00  0.00    +0.049 A 
ATOM     14  C7  UNL     1     -16.599  13.813  41.599  0.00  0.00    +0.158 A 
BRANCH   9  16
ATOM     15  C1  UNL     1     -14.950  10.808  40.419  0.00  0.00    +0.277 C 
ATOM     16  O1  UNL     1     -15.516  11.741  41.327  0.00  0.00    -0.491 OA
ENDBRANCH   9  16
BRANCH  14  17
ATOM     17  O2  UNL     1     -15.953  13.933  42.800  0.00  0.00    -0.503 OA
ATOM     18  H7  UNL     1     -15.642  14.844  42.904  0.00  0.00    +0.292 HD
ENDBRANCH  14  17
ENDBRANCH   1  11
BRANCH   8  19
ATOM     19  C14 UNL     1     -22.517  11.833  35.486  0.00  0.00    -0.015 A 
ATOM     20  C15 UNL     1     -21.849  11.698  34.256  0.00  0.00    +0.055 A 
ATOM     21  C16 UNL     1     -22.558  11.567  33.057  0.00  0.00    +0.162 A 
ATOM     22  C17 UNL     1     -23.959  11.562  33.101  0.00  0.00    +0.158 A 
ATOM     23  C18 UNL     1     -24.640  11.693  34.309  0.00  0.00    +0.049 A 
ATOM     24  C19 UNL     1     -23.921  11.828  35.497  0.00  0.00    +0.010 A 
BRANCH  22  25
ATOM     25  O5  UNL     1     -24.664  11.428  31.934  0.00  0.00    -0.503 OA
ATOM     26  H19 UNL     1     -25.480  11.947  31.995  0.00  0.00    +0.292 HD
ENDBRANCH  22  25
BRANCH  21  27
ATOM     27  O6  UNL     1     -21.991  11.431  31.818  0.00  0.00    -0.491 OA
ATOM     28  C20 UNL     1     -20.606  11.723  31.699  0.00  0.00    +0.277 C 
ENDBRANCH  21  27
ENDBRANCH   8  19
TORSDOF 6
ENDMDL
MODEL 2
REMARK VINA RESULT:    -8.298      0.909      8.566
REMARK INTER + INTRA:         -11.392
REMARK INTER:                 -10.695
REMARK INTRA:                  -0.697
REMARK UNBOUND:                -0.668
REMARK  Name = data/mahkota_dewa_dn/results/docking/ligands/pdb/Pinoresinol.pdb
REMARK  8 active torsions:
REMARK  status: ('A' for Active; 'I' for Inactive)
REMARK    1  A    between atoms: C1_1  and  O1_2
REMARK    2  A    between atoms: O1_2  and  C2_3
REMARK    3  A    between atoms: C4_5  and  C8_10
REMARK    4  A    between atoms: C7_8  and  O2_9
REMARK    5  A    between atoms: C13_17  and  C14_18
REMARK    6  A    between atoms: C16_20  and  O6_25
REMARK    7  A    between atoms: C17_21  and  O5_24
REMARK    8  A    between atoms: O6_25  and  C20_26
REMARK                            x       y       z     vdW  Elec       q    Type
REMARK                         _______ _______ _______ _____ _____    ______ ____
ROOT
ATOM      1  C8  UNL     1     -21.251  11.606  36.847  0.00  0.00    +0.154 C 
ATOM      2  O3  UNL     1     -20.052  10.782  36.652  0.00  0.00    -0.371 OA
ATOM      3  C9  UNL     1     -18.903  11.496  37.201  0.00  0.00    +0.167 C 
ATOM      4  C10 UNL     1     -19.530  12.550  38.059  0.00  0.00    +0.056 C 
ATOM      5  C11 UNL     1     -20.674  12.955  37.181  0.00  0.00    +0.056 C 
ATOM      6  C12 UNL     1     -21.301  14.009  38.040  0.00  0.00    +0.167 C 
ATOM      7  O4  UNL     1     -20.152  14.723  38.588  0.00  0.00    -0.371 OA
ATOM      8  C13 UNL     1     -18.953  13.899  38.393  0.00  0.00    +0.154 C 
ENDROOT
BRANCH   1  11
ATOM      9  C2  UNL     1     -22.431  11.620  33.197  0.00  0.00    +0.162 A 
ATOM     10  C3  UNL     1     -21.601  11.572  34.323  0.00  0.00    +0.055 A 
ATOM     11  C4  UNL     1     -22.134  11.631  35.623  0.00  0.00    -0.015 A 
ATOM     12  C5  UNL     1     -23.524  11.745  35.779  0.00  0.00    +0.010 A 
ATOM     13  C6  UNL     1     -24.362  11.798  34.665  0.00  0.00    +0.049 A 
ATOM     14  C7  UNL     1     -23.814  11.738  33.386  0.00  0.00    +0.158 A 
BRANCH   9  16
ATOM     15  C1  UNL     1     -20.611  11.766  31.666  0.00  0.00    +0.277 C 
ATOM     16  O1  UNL     1     -21.998  11.571  31.898  0.00  0.00    -0.491 OA
ENDBRANCH   9  16
BRANCH  14  17
ATOM     17  O2  UNL     1     -24.636  11.791  32.292  0.00  0.00    -0.503 OA
ATOM     18  H7  UNL     1     -24.337  11.142  31.638  0.00  0.00    +0.292 HD
ENDBRANCH  14  17
ENDBRANCH   1  11
BRANCH   8  19
ATOM     19  C14 UNL     1     -18.070  13.874  39.618  0.00  0.00    -0.015 A 
ATOM     20  C15 UNL     1     -17.188  12.809  39.874  0.00  0.00    +0.055 A 
ATOM     21  C16 UNL     1     -16.360  12.812  41.002  0.00  0.00    +0.162 A 
ATOM     22  C17 UNL     1     -16.415  13.906  41.875  0.00  0.00    +0.158 A 
ATOM     23  C18 UNL     1     -17.281  14.972  41.638  0.00  0.00    +0.049 A 
ATOM     24  C19 UNL     1     -18.105  14.955  40.513  0.00  0.00    +0.010 A 
BRANCH  22  25
ATOM     25  O5  UNL     1     -15.604  13.922  42.979  0.00  0.00    -0.503 OA
ATOM     26  H19 UNL     1     -15.228  14.809  43.083  0.00  0.00    +0.292 HD
ENDBRANCH  22  25
BRANCH  21  27
ATOM     27  O6  UNL     1     -15.473  11.820  41.329  0.00  0.00    -0.491 OA
ATOM     28  C20 UNL     1     -15.119  10.899  40.307  0.00  0.00    +0.277 C 
ENDBRANCH  21  27
ENDBRANCH   8  19
TORSDOF 6
ENDMDL
MODEL 3
REMARK VINA RESULT:    -8.060      5.513     10.003
REMARK INTER + INTRA:         -11.085
REMARK INTER:                 -10.309
REMARK INTRA:                  -0.776
REMARK UNBOUND:                -0.668
REMARK  Name = data/mahkota_dewa_dn/results/docking/ligands/pdb/Pinoresinol.pdb
REMARK  8 active torsions:
REMARK  status: ('A' for Active; 'I' for Inactive)
REMARK    1  A    between atoms: C1_1  and  O1_2
REMARK    2  A    between atoms: O1_2  and  C2_3
REMARK    3  A    between atoms: C4_5  and  C8_10
REMARK    4  A    between atoms: C7_8  and  O2_9
REMARK    5  A    between atoms: C13_17  and  C14_18
REMARK    6  A    between atoms: C16_20  and  O6_25
REMARK    7  A    between atoms: C17_21  and  O5_24
REMARK    8  A    between atoms: O6_25  and  C20_26
REMARK                            x       y       z     vdW  Elec       q    Type
REMARK                         _______ _______ _______ _____ _____    ______ ____
ROOT
ATOM      1  C8  UNL     1     -15.712  10.580  40.198  0.00  0.00    +0.154 C 
ATOM      2  O3  UNL     1     -14.255  10.732  40.275  0.00  0.00    -0.371 OA
ATOM      3  C9  UNL     1     -13.722   9.675  41.129  0.00  0.00    +0.167 C 
ATOM      4  C10 UNL     1     -14.850   8.695  41.209  0.00  0.00    +0.056 C 
ATOM      5  C11 UNL     1     -16.007   9.637  41.334  0.00  0.00    +0.056 C 
ATOM      6  C12 UNL     1     -17.135   8.657  41.413  0.00  0.00    +0.167 C 
ATOM      7  O4  UNL     1     -16.602   7.600  42.268  0.00  0.00    -0.371 OA
ATOM      8  C13 UNL     1     -15.144   7.752  42.345  0.00  0.00    +0.154 C 
ENDROOT
BRANCH   1  11
ATOM      9  C2  UNL     1     -16.886  13.984  41.523  0.00  0.00    +0.162 A 
ATOM     10  C3  UNL     1     -16.193  12.773  41.404  0.00  0.00    +0.055 A 
ATOM     11  C4  UNL     1     -16.433  11.901  40.328  0.00  0.00    -0.015 A 
ATOM     12  C5  UNL     1     -17.391  12.259  39.367  0.00  0.00    +0.010 A 
ATOM     13  C6  UNL     1     -18.093  13.460  39.477  0.00  0.00    +0.049 A 
ATOM     14  C7  UNL     1     -17.840  14.312  40.550  0.00  0.00    +0.158 A 
BRANCH   9  16
ATOM     15  C1  UNL     1     -17.027  14.460  43.854  0.00  0.00    +0.277 C 
ATOM     16  O1  UNL     1     -16.717  14.890  42.537  0.00  0.00    -0.491 OA
ENDBRANCH   9  16
BRANCH  14  17
ATOM     17  O2  UNL     1     -18.528  15.490  40.659  0.00  0.00    -0.503 OA
ATOM     18  H7  UNL     1     -19.240  15.504  40.002  0.00  0.00    +0.292 HD
ENDBRANCH  14  17
ENDBRANCH   1  11
BRANCH   8  19
ATOM     19  C14 UNL     1     -14.423   6.432  42.214  0.00  0.00    -0.015 A 
ATOM     20  C15 UNL     1     -14.466   5.460  43.230  0.00  0.00    +0.055 A 
ATOM     21  C16 UNL     1     -13.812   4.232  43.084  0.00  0.00    +0.162 A 
ATOM     22  C17 UNL     1     -13.114   3.977  41.896  0.00  0.00    +0.158 A 
ATOM     23  C18 UNL     1     -13.060   4.927  40.877  0.00  0.00    +0.049 A 
ATOM     24  C19 UNL     1     -13.713   6.149  41.037  0.00  0.00    +0.010 A 
BRANCH  22  25
ATOM     25  O5  UNL     1     -12.475   2.776  41.740  0.00  0.00    -0.503 OA
ATOM     26  H19 UNL     1     -11.757   2.880  41.097  0.00  0.00    +0.292 HD
ENDBRANCH  22  25
BRANCH  21  27
ATOM     27  O6  UNL     1     -13.801   3.231  44.019  0.00  0.00    -0.491 OA
ATOM     28  C20 UNL     1     -14.544   3.443  45.211  0.00  0.00    +0.277 C 
ENDBRANCH  21  27
ENDBRANCH   8  19
TORSDOF 6
ENDMDL
MODEL 4
REMARK VINA RESULT:    -7.998      4.784     10.104
REMARK INTER + INTRA:         -11.004
REMARK INTER:                 -10.206
REMARK INTRA:                  -0.797
REMARK UNBOUND:                -0.668
REMARK  Name = data/mahkota_dewa_dn/results/docking/ligands/pdb/Pinoresinol.pdb
REMARK  8 active torsions:
REMARK  status: ('A' for Active; 'I' for Inactive)
REMARK    1  A    between atoms: C1_1  and  O1_2
REMARK    2  A    between atoms: O1_2  and  C2_3
REMARK    3  A    between atoms: C4_5  and  C8_10
REMARK    4  A    between atoms: C7_8  and  O2_9
REMARK    5  A    between atoms: C13_17  and  C14_18
REMARK    6  A    between atoms: C16_20  and  O6_25
REMARK    7  A    between atoms: C17_21  and  O5_24
REMARK    8  A    between atoms: O6_25  and  C20_26
REMARK                            x       y       z     vdW  Elec       q    Type
REMARK                         _______ _______ _______ _____ _____    ______ ____
ROOT
ATOM      1  C8  UNL     1     -15.818  10.383  40.278  0.00  0.00    +0.154 C 
ATOM      2  O3  UNL     1     -14.373  10.628  40.349  0.00  0.00    -0.371 OA
ATOM      3  C9  UNL     1     -13.759   9.563  41.135  0.00  0.00    +0.167 C 
ATOM      4  C10 UNL     1     -14.818   8.507  41.171  0.00  0.00    +0.056 C 
ATOM      5  C11 UNL     1     -16.033   9.360  41.360  0.00  0.00    +0.056 C 
ATOM      6  C12 UNL     1     -17.092   8.304  41.395  0.00  0.00    +0.167 C 
ATOM      7  O4  UNL     1     -16.478   7.238  42.182  0.00  0.00    -0.371 OA
ATOM      8  C13 UNL     1     -15.033   7.484  42.253  0.00  0.00    +0.154 C 
ENDROOT
BRANCH   1  11
ATOM      9  C2  UNL     1     -18.602  13.015  40.073  0.00  0.00    +0.162 A 
ATOM     10  C3  UNL     1     -17.878  11.832  39.885  0.00  0.00    +0.055 A 
ATOM     11  C4  UNL     1     -16.623  11.643  40.491  0.00  0.00    -0.015 A 
ATOM     12  C5  UNL     1     -16.097  12.668  41.292  0.00  0.00    +0.010 A 
ATOM     13  C6  UNL     1     -16.807  13.854  41.484  0.00  0.00    +0.049 A 
ATOM     14  C7  UNL     1     -18.049  14.022  40.875  0.00  0.00    +0.158 A 
BRANCH   9  16
ATOM     15  C1  UNL     1     -20.058  12.830  38.196  0.00  0.00    +0.277 C 
ATOM     16  O1  UNL     1     -19.827  13.283  39.521  0.00  0.00    -0.491 OA
ENDBRANCH   9  16
BRANCH  14  17
ATOM     17  O2  UNL     1     -18.745  15.186  41.062  0.00  0.00    -0.503 OA
ATOM     18  H7  UNL     1     -18.396  15.643  41.842  0.00  0.00    +0.292 HD
ENDBRANCH  14  17
ENDBRANCH   1  11
BRANCH   8  19
ATOM     19  C14 UNL     1     -14.228   6.224  42.040  0.00  0.00    -0.015 A 
ATOM     20  C15 UNL     1     -14.119   5.236  43.035  0.00  0.00    +0.055 A 
ATOM     21  C16 UNL     1     -13.388   4.064  42.815  0.00  0.00    +0.162 A 
ATOM     22  C17 UNL     1     -12.767   3.882  41.571  0.00  0.00    +0.158 A 
ATOM     23  C18 UNL     1     -12.863   4.848  40.572  0.00  0.00    +0.049 A 
ATOM     24  C19 UNL     1     -13.592   6.015  40.807  0.00  0.00    +0.010 A 
BRANCH  22  25
ATOM     25  O5  UNL     1     -12.054   2.735  41.341  0.00  0.00    -0.503 OA
ATOM     26  H19 UNL     1     -11.243   2.754  41.871  0.00  0.00    +0.292 HD
ENDBRANCH  22  25
BRANCH  21  27
ATOM     27  O6  UNL     1     -13.230   3.052  43.724  0.00  0.00    -0.491 OA
ATOM     28  C20 UNL     1     -14.379   2.281  44.048  0.00  0.00    +0.277 C 
ENDBRANCH  21  27
ENDBRANCH   8  19
TORSDOF 6
ENDMDL
MODEL 5
REMARK VINA RESULT:    -7.619      4.380      8.242
REMARK INTER + INTRA:         -10.515
REMARK INTER:                  -9.855
REMARK INTRA:                  -0.659
REMARK UNBOUND:                -0.668
REMARK  Name = data/mahkota_dewa_dn/results/docking/ligands/pdb/Pinoresinol.pdb
REMARK  8 active torsions:
REMARK  status: ('A' for Active; 'I' for Inactive)
REMARK    1  A    between atoms: C1_1  and  O1_2
REMARK    2  A    between atoms: O1_2  and  C2_3
REMARK    3  A    between atoms: C4_5  and  C8_10
REMARK    4  A    between atoms: C7_8  and  O2_9
REMARK    5  A    between atoms: C13_17  and  C14_18
REMARK    6  A    between atoms: C16_20  and  O6_25
REMARK    7  A    between atoms: C17_21  and  O5_24
REMARK    8  A    between atoms: O6_25  and  C20_26
REMARK                            x       y       z     vdW  Elec       q    Type
REMARK                         _______ _______ _______ _____ _____    ______ ____
ROOT
ATOM      1  C8  UNL     1     -14.718   8.399  41.959  0.00  0.00    +0.154 C 
ATOM      2  O3  UNL     1     -13.741   9.408  41.535  0.00  0.00    -0.371 OA
ATOM      3  C9  UNL     1     -14.413  10.370  40.668  0.00  0.00    +0.167 C 
ATOM      4  C10 UNL     1     -15.865  10.114  40.929  0.00  0.00    +0.056 C 
ATOM      5  C11 UNL     1     -15.858   8.618  41.001  0.00  0.00    +0.056 C 
ATOM      6  C12 UNL     1     -17.309   8.363  41.263  0.00  0.00    +0.167 C 
ATOM      7  O4  UNL     1     -17.981   9.325  40.394  0.00  0.00    -0.371 OA
ATOM      8  C13 UNL     1     -17.004  10.334  39.970  0.00  0.00    +0.154 C 
ENDROOT
BRANCH   1  11
ATOM      9  C2  UNL     1     -13.900   4.751  42.821  0.00  0.00    +0.162 A 
ATOM     10  C3  UNL     1     -14.445   6.039  42.883  0.00  0.00    +0.055 A 
ATOM     11  C4  UNL     1     -14.159   6.997  41.895  0.00  0.00    -0.015 A 
ATOM     12  C5  UNL     1     -13.305   6.646  40.838  0.00  0.00    +0.010 A 
ATOM     13  C6  UNL     1     -12.751   5.367  40.767  0.00  0.00    +0.049 A 
ATOM     14  C7  UNL     1     -13.048   4.431  41.756  0.00  0.00    +0.158 A 
BRANCH   9  16
ATOM     15  C1  UNL     1     -14.691   4.137  44.984  0.00  0.00    +0.277 C 
ATOM     16  O1  UNL     1     -14.124   3.758  43.738  0.00  0.00    -0.491 OA
ENDBRANCH   9  16
BRANCH  14  17
ATOM     17  O2  UNL     1     -12.504   3.176  41.688  0.00  0.00    -0.503 OA
ATOM     18  H7  UNL     1     -13.112   2.592  41.211  0.00  0.00    +0.292 HD
ENDBRANCH  14  17
ENDBRANCH   1  11
BRANCH   8  19
ATOM     19  C14 UNL     1     -17.564  11.735  40.034  0.00  0.00    -0.015 A 
ATOM     20  C15 UNL     1     -18.884  12.025  39.646  0.00  0.00    +0.055 A 
ATOM     21  C16 UNL     1     -19.395  13.325  39.733  0.00  0.00    +0.162 A 
ATOM     22  C17 UNL     1     -18.568  14.342  40.227  0.00  0.00    +0.158 A 
ATOM     23  C18 UNL     1     -17.257  14.075  40.619  0.00  0.00    +0.049 A 
ATOM     24  C19 UNL     1     -16.758  12.776  40.522  0.00  0.00    +0.010 A 
BRANCH  22  25
ATOM     25  O5  UNL     1     -19.060  15.617  40.323  0.00  0.00    -0.503 OA
ATOM     26  H19 UNL     1     -19.926  15.656  39.890  0.00  0.00    +0.292 HD
ENDBRANCH  22  25
BRANCH  21  27
ATOM     27  O6  UNL     1     -20.665  13.696  39.378  0.00  0.00    -0.491 OA
ATOM     28  C20 UNL     1     -21.098  13.366  38.065  0.00  0.00    +0.277 C 
ENDBRANCH  21  27
ENDBRANCH   8  19
TORSDOF 6
ENDMDL
MODEL 6
REMARK VINA RESULT:    -7.210      5.307      9.654
REMARK INTER + INTRA:          -9.986
REMARK INTER:                  -9.141
REMARK INTRA:                  -0.845
REMARK UNBOUND:                -0.668
REMARK  Name = data/mahkota_dewa_dn/results/docking/ligands/pdb/Pinoresinol.pdb
REMARK  8 active torsions:
REMARK  status: ('A' for Active; 'I' for Inactive)
REMARK    1  A    between atoms: C1_1  and  O1_2
REMARK    2  A    between atoms: O1_2  and  C2_3
REMARK    3  A    between atoms: C4_5  and  C8_10
REMARK    4  A    between atoms: C7_8  and  O2_9
REMARK    5  A    between atoms: C13_17  and  C14_18
REMARK    6  A    between atoms: C16_20  and  O6_25
REMARK    7  A    between atoms: C17_21  and  O5_24
REMARK    8  A    between atoms: O6_25  and  C20_26
REMARK                            x       y       z     vdW  Elec       q    Type
REMARK                         _______ _______ _______ _____ _____    ______ ____
ROOT
ATOM      1  C8  UNL     1     -15.495   6.343  41.754  0.00  0.00    +0.154 C 
ATOM      2  O3  UNL     1     -16.820   6.593  42.333  0.00  0.00    -0.371 OA
ATOM      3  C9  UNL     1     -17.027   8.035  42.416  0.00  0.00    +0.167 C 
ATOM      4  C10 UNL     1     -15.969   8.588  41.513  0.00  0.00    +0.056 C 
ATOM      5  C11 UNL     1     -14.826   7.687  41.867  0.00  0.00    +0.056 C 
ATOM      6  C12 UNL     1     -13.769   8.239  40.964  0.00  0.00    +0.167 C 
ATOM      7  O4  UNL     1     -13.976   9.682  41.047  0.00  0.00    -0.371 OA
ATOM      8  C13 UNL     1     -15.301   9.931  41.627  0.00  0.00    +0.154 C 
ENDROOT
BRANCH   1  11
ATOM      9  C2  UNL     1     -14.311   3.929  44.490  0.00  0.00    +0.162 A 
ATOM     10  C3  UNL     1     -15.028   4.927  43.821  0.00  0.00    +0.055 A 
ATOM     11  C4  UNL     1     -14.748   5.252  42.482  0.00  0.00    -0.015 A 
ATOM     12  C5  UNL     1     -13.724   4.558  41.818  0.00  0.00    +0.010 A 
ATOM     13  C6  UNL     1     -12.998   3.563  42.474  0.00  0.00    +0.049 A 
ATOM     14  C7  UNL     1     -13.292   3.256  43.802  0.00  0.00    +0.158 A 
BRANCH   9  16
ATOM     15  C1  UNL     1     -15.805   3.062  46.133  0.00  0.00    +0.277 C 
ATOM     16  O1  UNL     1     -14.516   3.550  45.791  0.00  0.00    -0.491 OA
ENDBRANCH   9  16
BRANCH  14  17
ATOM     17  O2  UNL     1     -12.580   2.281  44.447  0.00  0.00    -0.503 OA
ATOM     18  H7  UNL     1     -12.361   1.578  43.817  0.00  0.00    +0.292 HD
ENDBRANCH  14  17
ENDBRANCH   1  11
BRANCH   8  19
ATOM     19  C14 UNL     1     -16.048  11.023  40.898  0.00  0.00    -0.015 A 
ATOM     20  C15 UNL     1     -16.195  12.311  41.442  0.00  0.00    +0.055 A 
ATOM     21  C16 UNL     1     -16.870  13.319  40.745  0.00  0.00    +0.162 A 
ATOM     22  C17 UNL     1     -17.396  13.025  39.479  0.00  0.00    +0.158 A 
ATOM     23  C18 UNL     1     -17.260  11.755  38.922  0.00  0.00    +0.049 A 
ATOM     24  C19 UNL     1     -16.589  10.758  39.631  0.00  0.00    +0.010 A 
BRANCH  22  25
ATOM     25  O5  UNL     1     -18.053  14.005  38.784  0.00  0.00    -0.503 OA
ATOM     26  H19 UNL     1     -18.030  13.794  37.839  0.00  0.00    +0.292 HD
ENDBRANCH  22  25
BRANCH  21  27
ATOM     27  O6  UNL     1     -17.059  14.598  41.196  0.00  0.00    -0.491 OA
ATOM     28  C20 UNL     1     -16.746  14.862  42.557  0.00  0.00    +0.277 C 
ENDBRANCH  21  27
ENDBRANCH   8  19
TORSDOF 6
ENDMDL
MODEL 7
REMARK VINA RESULT:    -7.133      5.347      9.320
REMARK INTER + INTRA:          -9.886
REMARK INTER:                  -9.041
REMARK INTRA:                  -0.845
REMARK UNBOUND:                -0.668
REMARK  Name = data/mahkota_dewa_dn/results/docking/ligands/pdb/Pinoresinol.pdb
REMARK  8 active torsions:
REMARK  status: ('A' for Active; 'I' for Inactive)
REMARK    1  A    between atoms: C1_1  and  O1_2
REMARK    2  A    between atoms: O1_2  and  C2_3
REMARK    3  A    between atoms: C4_5  and  C8_10
REMARK    4  A    between atoms: C7_8  and  O2_9
REMARK    5  A    between atoms: C13_17  and  C14_18
REMARK    6  A    between atoms: C16_20  and  O6_25
REMARK    7  A    between atoms: C17_21  and  O5_24
REMARK    8  A    between atoms: O6_25  and  C20_26
REMARK                            x       y       z     vdW  Elec       q    Type
REMARK                         _______ _______ _______ _____ _____    ______ ____
ROOT
ATOM      1  C8  UNL     1     -15.535   6.314  41.795  0.00  0.00    +0.154 C 
ATOM      2  O3  UNL     1     -16.873   6.588  42.330  0.00  0.00    -0.371 OA
ATOM      3  C9  UNL     1     -17.062   8.034  42.391  0.00  0.00    +0.167 C 
ATOM      4  C10 UNL     1     -15.969   8.562  41.516  0.00  0.00    +0.056 C 
ATOM      5  C11 UNL     1     -14.851   7.649  41.915  0.00  0.00    +0.056 C 
ATOM      6  C12 UNL     1     -13.758   8.177  41.039  0.00  0.00    +0.167 C 
ATOM      7  O4  UNL     1     -13.947   9.623  41.101  0.00  0.00    -0.371 OA
ATOM      8  C13 UNL     1     -15.285   9.897  41.636  0.00  0.00    +0.154 C 
ENDROOT
BRANCH   1  11
ATOM      9  C2  UNL     1     -14.447   3.936  44.602  0.00  0.00    +0.162 A 
ATOM     10  C3  UNL     1     -15.128   4.938  43.901  0.00  0.00    +0.055 A 
ATOM     11  C4  UNL     1     -14.826   5.220  42.557  0.00  0.00    -0.015 A 
ATOM     12  C5  UNL     1     -13.818   4.480  41.921  0.00  0.00    +0.010 A 
ATOM     13  C6  UNL     1     -13.127   3.481  42.609  0.00  0.00    +0.049 A 
ATOM     14  C7  UNL     1     -13.442   3.217  43.941  0.00  0.00    +0.158 A 
BRANCH   9  16
ATOM     15  C1  UNL     1     -15.874   2.897  46.202  0.00  0.00    +0.277 C 
ATOM     16  O1  UNL     1     -14.674   3.597  45.910  0.00  0.00    -0.491 OA
ENDBRANCH   9  16
BRANCH  14  17
ATOM     17  O2  UNL     1     -12.764   2.238  44.617  0.00  0.00    -0.503 OA
ATOM     18  H7  UNL     1     -12.080   2.648  45.167  0.00  0.00    +0.292 HD
ENDBRANCH  14  17
ENDBRANCH   1  11
BRANCH   8  19
ATOM     19  C14 UNL     1     -15.994  10.991  40.873  0.00  0.00    -0.015 A 
ATOM     20  C15 UNL     1     -16.613  10.749  39.634  0.00  0.00    +0.055 A 
ATOM     21  C16 UNL     1     -17.286  11.769  38.950  0.00  0.00    +0.162 A 
ATOM     22  C17 UNL     1     -17.342  13.044  39.529  0.00  0.00    +0.158 A 
ATOM     23  C18 UNL     1     -16.735  13.303  40.756  0.00  0.00    +0.049 A 
ATOM     24  C19 UNL     1     -16.064  12.279  41.425  0.00  0.00    +0.010 A 
BRANCH  22  25
ATOM     25  O5  UNL     1     -18.003  14.047  38.872  0.00  0.00    -0.503 OA
ATOM     26  H19 UNL     1     -17.687  14.089  37.956  0.00  0.00    +0.292 HD
ENDBRANCH  22  25
BRANCH  21  27
ATOM     27  O6  UNL     1     -17.916  11.623  37.743  0.00  0.00    -0.491 OA
ATOM     28  C20 UNL     1     -17.095  11.502  36.590  0.00  0.00    +0.277 C 
ENDBRANCH  21  27
ENDBRANCH   8  19
TORSDOF 6
ENDMDL
MODEL 8
REMARK VINA RESULT:    -7.033      3.875      9.349
REMARK INTER + INTRA:          -9.757
REMARK INTER:                  -9.114
REMARK INTRA:                  -0.643
REMARK UNBOUND:                -0.668
REMARK  Name = data/mahkota_dewa_dn/results/docking/ligands/pdb/Pinoresinol.pdb
REMARK  8 active torsions:
REMARK  status: ('A' for Active; 'I' for Inactive)
REMARK    1  A    between atoms: C1_1  and  O1_2
REMARK    2  A    between atoms: O1_2  and  C2_3
REMARK    3  A    between atoms: C4_5  and  C8_10
REMARK    4  A    between atoms: C7_8  and  O2_9
REMARK    5  A    between atoms: C13_17  and  C14_18
REMARK    6  A    between atoms: C16_20  and  O6_25
REMARK    7  A    between atoms: C17_21  and  O5_24
REMARK    8  A    between atoms: O6_25  and  C20_26
REMARK                            x       y       z     vdW  Elec       q    Type
REMARK                         _______ _______ _______ _____ _____    ______ ____
ROOT
ATOM      1  C8  UNL     1     -16.856  11.689  39.413  0.00  0.00    +0.154 C 
ATOM      2  O3  UNL     1     -15.640  12.201  40.053  0.00  0.00    -0.371 OA
ATOM      3  C9  UNL     1     -15.216  11.249  41.075  0.00  0.00    +0.167 C 
ATOM      4  C10 UNL     1     -15.981  10.010  40.730  0.00  0.00    +0.056 C 
ATOM      5  C11 UNL     1     -17.303  10.612  40.365  0.00  0.00    +0.056 C 
ATOM      6  C12 UNL     1     -18.067   9.373  40.019  0.00  0.00    +0.167 C 
ATOM      7  O4  UNL     1     -17.643   8.420  41.042  0.00  0.00    -0.371 OA
ATOM      8  C13 UNL     1     -16.427   8.933  41.682  0.00  0.00    +0.154 C 
ENDROOT
BRANCH   1  11
ATOM      9  C2  UNL     1     -20.210  13.469  38.864  0.00  0.00    +0.162 A 
ATOM     10  C3  UNL     1     -19.261  12.461  39.070  0.00  0.00    +0.055 A 
ATOM     11  C4  UNL     1     -17.896  12.766  39.215  0.00  0.00    -0.015 A 
ATOM     12  C5  UNL     1     -17.491  14.108  39.144  0.00  0.00    +0.010 A 
ATOM     13  C6  UNL     1     -18.427  15.122  38.935  0.00  0.00    +0.049 A 
ATOM     14  C7  UNL     1     -19.775  14.799  38.794  0.00  0.00    +0.158 A 
BRANCH   9  16
ATOM     15  C1  UNL     1     -22.052  11.961  38.989  0.00  0.00    +0.277 C 
ATOM     16  O1  UNL     1     -21.556  13.262  38.711  0.00  0.00    -0.491 OA
ENDBRANCH   9  16
BRANCH  14  17
ATOM     17  O2  UNL     1     -20.693  15.793  38.587  0.00  0.00    -0.503 OA
ATOM     18  H7  UNL     1     -21.007  15.751  37.671  0.00  0.00    +0.292 HD
ENDBRANCH  14  17
ENDBRANCH   1  11
BRANCH   8  19
ATOM     19  C14 UNL     1     -15.387   7.856  41.880  0.00  0.00    -0.015 A 
ATOM     20  C15 UNL     1     -15.545   6.840  42.839  0.00  0.00    +0.055 A 
ATOM     21  C16 UNL     1     -14.583   5.836  42.995  0.00  0.00    +0.162 A 
ATOM     22  C17 UNL     1     -13.453   5.851  42.166  0.00  0.00    +0.158 A 
ATOM     23  C18 UNL     1     -13.278   6.849  41.209  0.00  0.00    +0.049 A 
ATOM     24  C19 UNL     1     -14.243   7.847  41.067  0.00  0.00    +0.010 A 
BRANCH  22  25
ATOM     25  O5  UNL     1     -12.508   4.870  42.305  0.00  0.00    -0.503 OA
ATOM     26  H19 UNL     1     -12.293   4.767  43.244  0.00  0.00    +0.292 HD
ENDBRANCH  22  25
BRANCH  21  27
ATOM     27  O6  UNL     1     -14.655   4.811  43.900  0.00  0.00    -0.491 OA
ATOM     28  C20 UNL     1     -14.929   5.152  45.252  0.00  0.00    +0.277 C 
ENDBRANCH  21  27
ENDBRANCH   8  19
TORSDOF 6
ENDMDL
MODEL 9
REMARK VINA RESULT:    -6.968      1.501      8.939
REMARK INTER + INTRA:          -9.673
REMARK INTER:                  -9.312
REMARK INTRA:                  -0.361
REMARK UNBOUND:                -0.668
REMARK  Name = data/mahkota_dewa_dn/results/docking/ligands/pdb/Pinoresinol.pdb
REMARK  8 active torsions:
REMARK  status: ('A' for Active; 'I' for Inactive)
REMARK    1  A    between atoms: C1_1  and  O1_2
REMARK    2  A    between atoms: O1_2  and  C2_3
REMARK    3  A    between atoms: C4_5  and  C8_10
REMARK    4  A    between atoms: C7_8  and  O2_9
REMARK    5  A    between atoms: C13_17  and  C14_18
REMARK    6  A    between atoms: C16_20  and  O6_25
REMARK    7  A    between atoms: C17_21  and  O5_24
REMARK    8  A    between atoms: O6_25  and  C20_26
REMARK                            x       y       z     vdW  Elec       q    Type
REMARK                         _______ _______ _______ _____ _____    ______ ____
ROOT
ATOM      1  C8  UNL     1     -19.578  11.631  36.597  0.00  0.00    +0.154 C 
ATOM      2  O3  UNL     1     -18.154  11.620  36.242  0.00  0.00    -0.371 OA
ATOM      3  C9  UNL     1     -17.448  12.545  37.122  0.00  0.00    +0.167 C 
ATOM      4  C10 UNL     1     -18.424  12.778  38.232  0.00  0.00    +0.056 C 
ATOM      5  C11 UNL     1     -19.697  12.867  37.447  0.00  0.00    +0.056 C 
ATOM      6  C12 UNL     1     -20.673  13.099  38.557  0.00  0.00    +0.167 C 
ATOM      7  O4  UNL     1     -19.967  14.026  39.437  0.00  0.00    -0.371 OA
ATOM      8  C13 UNL     1     -18.543  14.015  39.082  0.00  0.00    +0.154 C 
ENDROOT
BRANCH   1  11
ATOM      9  C2  UNL     1     -22.685  11.618  34.348  0.00  0.00    +0.162 A 
ATOM     10  C3  UNL     1     -21.871  11.607  35.486  0.00  0.00    +0.055 A 
ATOM     11  C4  UNL     1     -20.471  11.666  35.380  0.00  0.00    -0.015 A 
ATOM     12  C5  UNL     1     -19.891  11.732  34.104  0.00  0.00    +0.010 A 
ATOM     13  C6  UNL     1     -20.690  11.739  32.960  0.00  0.00    +0.049 A 
ATOM     14  C7  UNL     1     -22.077  11.679  33.087  0.00  0.00    +0.158 A 
BRANCH   9  16
ATOM     15  C1  UNL     1     -24.677  11.085  35.542  0.00  0.00    +0.277 C 
ATOM     16  O1  UNL     1     -24.054  11.561  34.358  0.00  0.00    -0.491 OA
ENDBRANCH   9  16
BRANCH  14  17
ATOM     17  O2  UNL     1     -22.862  11.685  31.965  0.00  0.00    -0.503 OA
ATOM     18  H7  UNL     1     -22.917  10.784  31.611  0.00  0.00    +0.292 HD
ENDBRANCH  14  17
ENDBRANCH   1  11
BRANCH   8  19
ATOM     19  C14 UNL     1     -17.650  13.979  40.299  0.00  0.00    -0.015 A 
ATOM     20  C15 UNL     1     -17.802  14.893  41.357  0.00  0.00    +0.055 A 
ATOM     21  C16 UNL     1     -16.981  14.833  42.489  0.00  0.00    +0.162 A 
ATOM     22  C17 UNL     1     -16.002  13.832  42.558  0.00  0.00    +0.158 A 
ATOM     23  C18 UNL     1     -15.837  12.916  41.521  0.00  0.00    +0.049 A 
ATOM     24  C19 UNL     1     -16.659  12.990  40.396  0.00  0.00    +0.010 A 
BRANCH  22  25
ATOM     25  O5  UNL     1     -15.197  13.760  43.664  0.00  0.00    -0.503 OA
ATOM     26  H19 UNL     1     -14.302  14.042  43.424  0.00  0.00    +0.292 HD
ENDBRANCH  22  25
BRANCH  21  27
ATOM     27  O6  UNL     1     -17.058  15.680  43.563  0.00  0.00    -0.491 OA
ATOM     28  C20 UNL     1     -17.657  15.176  44.749  0.00  0.00    +0.277 C 
ENDBRANCH  21  27
ENDBRANCH   8  19
TORSDOF 6
ENDMDL
