MODEL 1
REMARK VINA RESULT:    -7.430      0.000      0.000
REMARK INTER + INTRA:         -10.972
REMARK INTER:                 -10.253
REMARK INTRA:                  -0.719
REMARK UNBOUND:                -0.719
REMARK  Name = data/mahkota_dewa_dn/results/docking/ligands/pdb/Lariciresinol.pdb
REMARK  10 active torsions:
REMARK  status: ('A' for Active; 'I' for Inactive)
REMARK    1  A    between atoms: C1_1  and  O1_2
REMARK    2  A    between atoms: O1_2  and  C2_3
REMARK    3  A    between atoms: C3_4  and  O6_25
REMARK    4  A    between atoms: C6_7  and  C8_9
REMARK    5  A    between atoms: C10_12  and  C13_16
REMARK    6  A    between atoms: C11_13  and  C12_14
REMARK    7  A    between atoms: C12_14  and  O3_15
REMARK    8  A    between atoms: C15_18  and  O5_23
REMARK    9  A    between atoms: C16_19  and  O4_22
REMARK   10  A    between atoms: O5_23  and  C19_24
REMARK                            x       y       z     vdW  Elec       q    Type
REMARK                         _______ _______ _______ _____ _____    ______ ____
ROOT
ATOM      1  C8  UNL     1     -19.729  11.125  37.706  0.00  0.00    +0.154 C 
ATOM      2  O2  UNL     1     -19.251   9.918  38.337  0.00  0.00    -0.371 OA
ATOM      3  C9  UNL     1     -17.821   9.997  38.454  0.00  0.00    +0.169 C 
ATOM      4  C10 UNL     1     -17.396  11.408  38.051  0.00  0.00    +0.053 C 
ATOM      5  C11 UNL     1     -18.506  11.798  37.069  0.00  0.00    +0.057 C 
ENDROOT
BRANCH   1  10
ATOM      6  C2  UNL     1     -22.334   9.351  35.514  0.00  0.00    +0.162 A 
ATOM      7  C3  UNL     1     -23.049  10.457  35.036  0.00  0.00    +0.158 A 
ATOM      8  C4  UNL     1     -22.713  11.753  35.424  0.00  0.00    +0.049 A 
ATOM      9  C5  UNL     1     -21.642  11.956  36.296  0.00  0.00    +0.010 A 
ATOM     10  C6  UNL     1     -20.901  10.869  36.784  0.00  0.00    -0.015 A 
ATOM     11  C7  UNL     1     -21.261   9.568  36.385  0.00  0.00    +0.055 A 
BRANCH   6  13
ATOM     12  C1  UNL     1     -23.466   7.307  35.982  0.00  0.00    +0.277 C 
ATOM     13  O1  UNL     1     -22.748   8.124  35.069  0.00  0.00    -0.491 OA
ENDBRANCH   6  13
BRANCH   7  14
ATOM     14  O6  UNL     1     -24.097  10.257  34.178  0.00  0.00    -0.503 OA
ATOM     15  H22 UNL     1     -23.835  10.533  33.286  0.00  0.00    +0.292 HD
ENDBRANCH   7  14
ENDBRANCH   1  10
BRANCH   4  16
ATOM     16  C13 UNL     1     -17.276  12.429  39.179  0.00  0.00    -0.038 A 
ATOM     17  C14 UNL     1     -17.984  13.642  39.050  0.00  0.00    +0.053 A 
ATOM     18  C15 UNL     1     -17.937  14.623  40.047  0.00  0.00    +0.162 A 
ATOM     19  C16 UNL     1     -17.172  14.376  41.192  0.00  0.00    +0.158 A 
ATOM     20  C17 UNL     1     -16.471  13.181  41.344  0.00  0.00    +0.049 A 
ATOM     21  C18 UNL     1     -16.526  12.211  40.343  0.00  0.00    +0.008 A 
BRANCH  19  22
ATOM     22  O4  UNL     1     -17.117  15.325  42.179  0.00  0.00    -0.503 OA
ATOM     23  H18 UNL     1     -17.471  16.159  41.836  0.00  0.00    +0.292 HD
ENDBRANCH  19  22
BRANCH  18  24
ATOM     24  O5  UNL     1     -18.592  15.824  40.000  0.00  0.00    -0.491 OA
ATOM     25  C19 UNL     1     -19.958  15.811  39.611  0.00  0.00    +0.277 C 
ENDBRANCH  18  24
ENDBRANCH   4  16
BRANCH   5  26
ATOM     26  C12 UNL     1     -18.191  11.295  35.654  0.00  0.00    +0.162 C 
BRANCH  26  27
ATOM     27  O3  UNL     1     -16.788  11.400  35.421  0.00  0.00    -0.395 OA
ATOM     28  H14 UNL     1     -16.381  11.663  36.265  0.00  0.00    +0.209 HD
ENDBRANCH  26  27
ENDBRANCH   5  26
TORSDOF 8
ENDMDL
MODEL 2
REMARK VINA RESULT:    -7.111      1.324      2.261
REMARK INTER + INTRA:         -10.532
REMARK INTER:                  -9.885
REMARK INTRA:                  -0.648
REMARK UNBOUND:                -0.719
REMARK  Name = data/mahkota_dewa_dn/results/docking/ligands/pdb/Lariciresinol.pdb
REMARK  10 active torsions:
REMARK  status: ('A' for Active; 'I' for Inactive)
REMARK    1  A    between atoms: C1_1  and  O1_2
REMARK    2  A    between atoms: O1_2  and  C2_3
REMARK    3  A    between atoms: C3_4  and  O6_25
REMARK    4  A    between atoms: C6_7  and  C8_9
REMARK    5  A    between atoms: C10_12  and  C13_16
REMARK    6  A    between atoms: C11_13  and  C12_14
REMARK    7  A    between atoms: C12_14  and  O3_15
REMARK    8  A    between atoms: C15_18  and  O5_23
REMARK    9  A    between atoms: C16_19  and  O4_22
REMARK   10  A    between atoms: O5_23  and  C19_24
REMARK                            x       y       z     vdW  Elec       q    Type
REMARK                         _______ _______ _______ _____ _____    ______ ____
ROOT
ATOM      1  C8  UNL     1     -20.612  11.440  36.315  0.00  0.00    +0.154 C 
ATOM      2  O2  UNL     1     -20.563  10.564  37.460  0.00  0.00    -0.371 OA
ATOM      3  C9  UNL     1     -19.230  10.584  37.997  0.00  0.00    +0.169 C 
ATOM      4  C10 UNL     1     -18.449  11.677  37.269  0.00  0.00    +0.053 C 
ATOM      5  C11 UNL     1     -19.156  11.710  35.909  0.00  0.00    +0.057 C 
ENDROOT
BRANCH   1  10
ATOM      6  C2  UNL     1     -22.743   9.093  34.151  0.00  0.00    +0.162 A 
ATOM      7  C3  UNL     1     -23.155   9.985  33.152  0.00  0.00    +0.158 A 
ATOM      8  C4  UNL     1     -22.770  11.324  33.180  0.00  0.00    +0.049 A 
ATOM      9  C5  UNL     1     -21.955  11.786  34.213  0.00  0.00    +0.010 A 
ATOM     10  C6  UNL     1     -21.517  10.914  35.223  0.00  0.00    -0.015 A 
ATOM     11  C7  UNL     1     -21.922   9.568  35.180  0.00  0.00    +0.055 A 
BRANCH   6  13
ATOM     12  C1  UNL     1     -23.504   7.104  35.221  0.00  0.00    +0.277 C 
ATOM     13  O1  UNL     1     -23.178   7.800  34.027  0.00  0.00    -0.491 OA
ENDBRANCH   6  13
BRANCH   7  14
ATOM     14  O6  UNL     1     -23.953   9.529  32.136  0.00  0.00    -0.503 OA
ATOM     15  H22 UNL     1     -23.405   9.357  31.355  0.00  0.00    +0.292 HD
ENDBRANCH   7  14
ENDBRANCH   1  10
BRANCH   4  16
ATOM     16  C13 UNL     1     -18.444  13.056  37.921  0.00  0.00    -0.038 A 
ATOM     17  C14 UNL     1     -17.828  13.188  39.183  0.00  0.00    +0.053 A 
ATOM     18  C15 UNL     1     -17.769  14.422  39.839  0.00  0.00    +0.162 A 
ATOM     19  C16 UNL     1     -18.335  15.540  39.215  0.00  0.00    +0.158 A 
ATOM     20  C17 UNL     1     -18.942  15.433  37.965  0.00  0.00    +0.049 A 
ATOM     21  C18 UNL     1     -18.994  14.197  37.321  0.00  0.00    +0.008 A 
BRANCH  19  22
ATOM     22  O4  UNL     1     -18.284  16.756  39.844  0.00  0.00    -0.503 OA
ATOM     23  H18 UNL     1     -17.402  16.879  40.225  0.00  0.00    +0.292 HD
ENDBRANCH  19  22
BRANCH  18  24
ATOM     24  O5  UNL     1     -17.191  14.637  41.062  0.00  0.00    -0.491 OA
ATOM     25  C19 UNL     1     -16.392  13.594  41.600  0.00  0.00    +0.277 C 
ENDBRANCH  18  24
ENDBRANCH   4  16
BRANCH   5  26
ATOM     26  C12 UNL     1     -18.573  10.656  34.960  0.00  0.00    +0.162 C 
BRANCH  26  27
ATOM     27  O3  UNL     1     -17.215  10.982  34.673  0.00  0.00    -0.395 OA
ATOM     28  H14 UNL     1     -17.143  11.952  34.717  0.00  0.00    +0.209 HD
ENDBRANCH  26  27
ENDBRANCH   5  26
TORSDOF 8
ENDMDL
MODEL 3
REMARK VINA RESULT:    -7.091      1.359      2.627
REMARK INTER + INTRA:         -10.504
REMARK INTER:                  -9.636
REMARK INTRA:                  -0.868
REMARK UNBOUND:                -0.719
REMARK  Name = data/mahkota_dewa_dn/results/docking/ligands/pdb/Lariciresinol.pdb
REMARK  10 active torsions:
REMARK  status: ('A' for Active; 'I' for Inactive)
REMARK    1  A    between atoms: C1_1  and  O1_2
REMARK    2  A    between atoms: O1_2  and  C2_3
REMARK    3  A    between atoms: C3_4  and  O6_25
REMARK    4  A    between atoms: C6_7  and  C8_9
REMARK    5  A    between atoms: C10_12  and  C13_16
REMARK    6  A    between atoms: C11_13  and  C12_14
REMARK    7  A    between atoms: C12_14  and  O3_15
REMARK    8  A    between atoms: C15_18  and  O5_23
REMARK    9  A    between atoms: C16_19  and  O4_22
REMARK   10  A    between atoms: O5_23  and  C19_24
REMARK                            x       y       z     vdW  Elec       q    Type
REMARK                         _______ _______ _______ _____ _____    ______ ____
ROOT
ATOM      1  C8  UNL     1     -19.774  10.283  38.149  0.00  0.00    +0.154 C 
ATOM      2  O2  UNL     1     -19.242   9.809  39.404  0.00  0.00    -0.371 OA
ATOM      3  C9  UNL     1     -17.878  10.244  39.518  0.00  0.00    +0.169 C 
ATOM      4  C10 UNL     1     -17.594  11.203  38.364  0.00  0.00    +0.053 C 
ATOM      5  C11 UNL     1     -18.569  10.698  37.294  0.00  0.00    +0.057 C 
ENDROOT
BRANCH   1  10
ATOM      6  C2  UNL     1     -22.494   8.746  35.920  0.00  0.00    +0.162 A 
ATOM      7  C3  UNL     1     -22.507   7.435  36.414  0.00  0.00    +0.158 A 
ATOM      8  C4  UNL     1     -21.644   7.044  37.436  0.00  0.00    +0.049 A 
ATOM      9  C5  UNL     1     -20.757   7.972  37.984  0.00  0.00    +0.010 A 
ATOM     10  C6  UNL     1     -20.728   9.295  37.516  0.00  0.00    -0.015 A 
ATOM     11  C7  UNL     1     -21.603   9.668  36.479  0.00  0.00    +0.055 A 
BRANCH   6  13
ATOM     12  C1  UNL     1     -22.848   9.400  33.655  0.00  0.00    +0.277 C 
ATOM     13  O1  UNL     1     -23.384   9.024  34.916  0.00  0.00    -0.491 OA
ENDBRANCH   6  13
BRANCH   7  14
ATOM     14  O6  UNL     1     -23.380   6.526  35.878  0.00  0.00    -0.503 OA
ATOM     15  H22 UNL     1     -24.106   6.377  36.503  0.00  0.00    +0.292 HD
ENDBRANCH   7  14
ENDBRANCH   1  10
BRANCH   4  16
ATOM     16  C13 UNL     1     -17.808  12.686  38.646  0.00  0.00    -0.038 A 
ATOM     17  C14 UNL     1     -17.464  13.172  39.925  0.00  0.00    +0.053 A 
ATOM     18  C15 UNL     1     -17.617  14.523  40.257  0.00  0.00    +0.162 A 
ATOM     19  C16 UNL     1     -18.119  15.398  39.287  0.00  0.00    +0.158 A 
ATOM     20  C17 UNL     1     -18.457  14.941  38.015  0.00  0.00    +0.049 A 
ATOM     21  C18 UNL     1     -18.299  13.592  37.696  0.00  0.00    +0.008 A 
BRANCH  19  22
ATOM     22  O4  UNL     1     -18.273  16.723  39.596  0.00  0.00    -0.503 OA
ATOM     23  H18 UNL     1     -18.091  17.255  38.807  0.00  0.00    +0.292 HD
ENDBRANCH  19  22
BRANCH  18  24
ATOM     24  O5  UNL     1     -17.309  15.074  41.472  0.00  0.00    -0.491 OA
ATOM     25  C19 UNL     1     -17.248  14.202  42.591  0.00  0.00    +0.277 C 
ENDBRANCH  18  24
ENDBRANCH   4  16
BRANCH   5  26
ATOM     26  C12 UNL     1     -17.955   9.543  36.491  0.00  0.00    +0.162 C 
BRANCH  26  27
ATOM     27  O3  UNL     1     -16.711   9.967  35.937  0.00  0.00    -0.395 OA
ATOM     28  H14 UNL     1     -16.921  10.552  35.188  0.00  0.00    +0.209 HD
ENDBRANCH  26  27
ENDBRANCH   5  26
TORSDOF 8
ENDMDL
MODEL 4
REMARK VINA RESULT:    -7.032      2.024      7.372
REMARK INTER + INTRA:         -10.424
REMARK INTER:                  -9.692
REMARK INTRA:                  -0.732
REMARK UNBOUND:                -0.719
REMARK  Name = data/mahkota_dewa_dn/results/docking/ligands/pdb/Lariciresinol.pdb
REMARK  10 active torsions:
REMARK  status: ('A' for Active; 'I' for Inactive)
REMARK    1  A    between atoms: C1_1  and  O1_2
REMARK    2  A    between atoms: O1_2  and  C2_3
REMARK    3  A    between atoms: C3_4  and  O6_25
REMARK    4  A    between atoms: C6_7  and  C8_9
REMARK    5  A    between atoms: C10_12  and  C13_16
REMARK    6  A    between atoms: C11_13  and  C12_14
REMARK    7  A    between atoms: C12_14  and  O3_15
REMARK    8  A    between atoms: C15_18  and  O5_23
REMARK    9  A    between atoms: C16_19  and  O4_22
REMARK   10  A    between atoms: O5_23  and  C19_24
REMARK                            x       y       z     vdW  Elec       q    Type
REMARK                         _______ _______ _______ _____ _____    ______ ____
ROOT
ATOM      1  C8  UNL     1     -19.275  11.798  38.204  0.00  0.00    +0.154 C 
ATOM      2  O2  UNL     1     -18.560  11.348  37.034  0.00  0.00    -0.371 OA
ATOM      3  C9  UNL     1     -19.233  10.197  36.499  0.00  0.00    +0.169 C 
ATOM      4  C10 UNL     1     -20.547  10.028  37.259  0.00  0.00    +0.053 C 
ATOM      5  C11 UNL     1     -20.201  10.647  38.619  0.00  0.00    +0.057 C 
ENDROOT
BRANCH   1  10
ATOM      6  C2  UNL     1     -16.217  12.298  40.469  0.00  0.00    +0.162 A 
ATOM      7  C3  UNL     1     -16.699  13.305  41.315  0.00  0.00    +0.158 A 
ATOM      8  C4  UNL     1     -17.979  13.830  41.152  0.00  0.00    +0.049 A 
ATOM      9  C5  UNL     1     -18.801  13.341  40.136  0.00  0.00    +0.010 A 
ATOM     10  C6  UNL     1     -18.350  12.325  39.279  0.00  0.00    -0.015 A 
ATOM     11  C7  UNL     1     -17.051  11.814  39.456  0.00  0.00    +0.055 A 
BRANCH   6  13
ATOM     12  C1  UNL     1     -14.695  10.466  40.553  0.00  0.00    +0.277 C 
ATOM     13  O1  UNL     1     -14.945  11.854  40.718  0.00  0.00    -0.491 OA
ENDBRANCH   6  13
BRANCH   7  14
ATOM     14  O6  UNL     1     -15.892  13.782  42.315  0.00  0.00    -0.503 OA
ATOM     15  H22 UNL     1     -15.223  14.368  41.931  0.00  0.00    +0.292 HD
ENDBRANCH   7  14
ENDBRANCH   1  10
BRANCH   4  16
ATOM     16  C13 UNL     1     -21.775  10.696  36.648  0.00  0.00    -0.038 A 
ATOM     17  C14 UNL     1     -21.750  10.985  35.267  0.00  0.00    +0.053 A 
ATOM     18  C15 UNL     1     -22.843  11.583  34.629  0.00  0.00    +0.162 A 
ATOM     19  C16 UNL     1     -23.977  11.890  35.389  0.00  0.00    +0.158 A 
ATOM     20  C17 UNL     1     -24.025  11.605  36.753  0.00  0.00    +0.049 A 
ATOM     21  C18 UNL     1     -22.930  11.009  37.377  0.00  0.00    +0.008 A 
BRANCH  19  22
ATOM     22  O4  UNL     1     -25.055  12.474  34.779  0.00  0.00    -0.503 OA
ATOM     23  H18 UNL     1     -25.749  12.625  35.438  0.00  0.00    +0.292 HD
ENDBRANCH  19  22
BRANCH  18  24
ATOM     24  O5  UNL     1     -22.901  11.897  33.297  0.00  0.00    -0.491 OA
ATOM     25  C19 UNL     1     -21.776  11.567  32.497  0.00  0.00    +0.277 C 
ENDBRANCH  18  24
ENDBRANCH   4  16
BRANCH   5  26
ATOM     26  C12 UNL     1     -19.533   9.616  39.538  0.00  0.00    +0.162 C 
BRANCH  26  27
ATOM     27  O3  UNL     1     -20.156   8.347  39.351  0.00  0.00    -0.395 OA
ATOM     28  H14 UNL     1     -20.029   7.848  40.177  0.00  0.00    +0.209 HD
ENDBRANCH  26  27
ENDBRANCH   5  26
TORSDOF 8
ENDMDL
MODEL 5
REMARK VINA RESULT:    -7.024      2.482      6.853
REMARK INTER + INTRA:         -10.411
REMARK INTER:                  -9.911
REMARK INTRA:                  -0.501
REMARK UNBOUND:                -0.719
REMARK  Name = data/mahkota_dewa_dn/results/docking/ligands/pdb/Lariciresinol.pdb
REMARK  10 active torsions:
REMARK  status: ('A' for Active; 'I' for Inactive)
REMARK    1  A    between atoms: C1_1  and  O1_2
REMARK    2  A    between atoms: O1_2  and  C2_3
REMARK    3  A    between atoms: C3_4  and  O6_25
REMARK    4  A    between atoms: C6_7  and  C8_9
REMARK    5  A    between atoms: C10_12  and  C13_16
REMARK    6  A    between atoms: C11_13  and  C12_14
REMARK    7  A    between atoms: C12_14  and  O3_15
REMARK    8  A    between atoms: C15_18  and  O5_23
REMARK    9  A    between atoms: C16_19  and  O4_22
REMARK   10  A    between atoms: O5_23  and  C19_24
REMARK                            x       y       z     vdW  Elec       q    Type
REMARK                         _______ _______ _______ _____ _____    ______ ____
ROOT
ATOM      1  C8  UNL     1     -18.198  11.687  38.906  0.00  0.00    +0.154 C 
ATOM      2  O2  UNL     1     -18.133  13.115  39.108  0.00  0.00    -0.371 OA
ATOM      3  C9  UNL     1     -18.479  13.769  37.877  0.00  0.00    +0.169 C 
ATOM      4  C10 UNL     1     -18.973  12.702  36.902  0.00  0.00    +0.053 C 
ATOM      5  C11 UNL     1     -18.213  11.462  37.388  0.00  0.00    +0.057 C 
ENDROOT
BRANCH   1  10
ATOM      6  C2  UNL     1     -16.372   9.022  40.979  0.00  0.00    +0.162 A 
ATOM      7  C3  UNL     1     -15.125   9.641  41.132  0.00  0.00    +0.158 A 
ATOM      8  C4  UNL     1     -14.865  10.887  40.565  0.00  0.00    +0.049 A 
ATOM      9  C5  UNL     1     -15.865  11.536  39.838  0.00  0.00    +0.010 A 
ATOM     10  C6  UNL     1     -17.128  10.946  39.676  0.00  0.00    -0.015 A 
ATOM     11  C7  UNL     1     -17.367   9.684  40.251  0.00  0.00    +0.055 A 
BRANCH   6  13
ATOM     12  C1  UNL     1     -17.829   7.426  41.985  0.00  0.00    +0.277 C 
ATOM     13  O1  UNL     1     -16.521   7.799  41.578  0.00  0.00    -0.491 OA
ENDBRANCH   6  13
BRANCH   7  14
ATOM     14  O6  UNL     1     -14.146   9.004  41.849  0.00  0.00    -0.503 OA
ATOM     15  H22 UNL     1     -14.015   9.469  42.689  0.00  0.00    +0.292 HD
ENDBRANCH   7  14
ENDBRANCH   1  10
BRANCH   4  16
ATOM     16  C13 UNL     1     -20.477  12.449  36.878  0.00  0.00    -0.038 A 
ATOM     17  C14 UNL     1     -21.023  11.818  35.740  0.00  0.00    +0.053 A 
ATOM     18  C15 UNL     1     -22.391  11.539  35.649  0.00  0.00    +0.162 A 
ATOM     19  C16 UNL     1     -23.221  11.896  36.718  0.00  0.00    +0.158 A 
ATOM     20  C17 UNL     1     -22.701  12.513  37.854  0.00  0.00    +0.049 A 
ATOM     21  C18 UNL     1     -21.335  12.785  37.934  0.00  0.00    +0.008 A 
BRANCH  19  22
ATOM     22  O4  UNL     1     -24.562  11.627  36.644  0.00  0.00    -0.503 OA
ATOM     23  H18 UNL     1     -24.996  12.323  36.129  0.00  0.00    +0.292 HD
ENDBRANCH  19  22
BRANCH  18  24
ATOM     24  O5  UNL     1     -23.001  10.931  34.583  0.00  0.00    -0.491 OA
ATOM     25  C19 UNL     1     -22.883  11.559  33.316  0.00  0.00    +0.277 C 
ENDBRANCH  18  24
ENDBRANCH   4  16
BRANCH   5  26
ATOM     26  C12 UNL     1     -16.814  11.393  36.760  0.00  0.00    +0.162 C 
BRANCH  26  27
ATOM     27  O3  UNL     1     -16.696  10.187  36.009  0.00  0.00    -0.395 OA
ATOM     28  H14 UNL     1     -15.803   9.839  36.174  0.00  0.00    +0.209 HD
ENDBRANCH  26  27
ENDBRANCH   5  26
TORSDOF 8
ENDMDL
MODEL 6
REMARK VINA RESULT:    -7.007      1.525      2.366
REMARK INTER + INTRA:         -10.388
REMARK INTER:                  -9.504
REMARK INTRA:                  -0.884
REMARK UNBOUND:                -0.719
REMARK  Name = data/mahkota_dewa_dn/results/docking/ligands/pdb/Lariciresinol.pdb
REMARK  10 active torsions:
REMARK  status: ('A' for Active; 'I' for Inactive)
REMARK    1  A    between atoms: C1_1  and  O1_2
REMARK    2  A    between atoms: O1_2  and  C2_3
REMARK    3  A    between atoms: C3_4  and  O6_25
REMARK    4  A    between atoms: C6_7  and  C8_9
REMARK    5  A    between atoms: C10_12  and  C13_16
REMARK    6  A    between atoms: C11_13  and  C12_14
REMARK    7  A    between atoms: C12_14  and  O3_15
REMARK    8  A    between atoms: C15_18  and  O5_23
REMARK    9  A    between atoms: C16_19  and  O4_22
REMARK   10  A    between atoms: O5_23  and  C19_24
REMARK                            x       y       z     vdW  Elec       q    Type
REMARK                         _______ _______ _______ _____ _____    ______ ____
ROOT
ATOM      1  C8  UNL     1     -18.760  10.161  39.185  0.00  0.00    +0.154 C 
ATOM      2  O2  UNL     1     -17.925   9.252  39.934  0.00  0.00    -0.371 OA
ATOM      3  C9  UNL     1     -16.567   9.715  39.866  0.00  0.00    +0.169 C 
ATOM      4  C10 UNL     1     -16.574  11.091  39.200  0.00  0.00    +0.053 C 
ATOM      5  C11 UNL     1     -17.817  10.998  38.309  0.00  0.00    +0.057 C 
ENDROOT
BRANCH   1  10
ATOM      6  C2  UNL     1     -21.996   9.477  37.237  0.00  0.00    +0.162 A 
ATOM      7  C3  UNL     1     -21.955   8.078  37.174  0.00  0.00    +0.158 A 
ATOM      8  C4  UNL     1     -20.897   7.364  37.732  0.00  0.00    +0.049 A 
ATOM      9  C5  UNL     1     -19.864   8.049  38.372  0.00  0.00    +0.010 A 
ATOM     10  C6  UNL     1     -19.882   9.450  38.460  0.00  0.00    -0.015 A 
ATOM     11  C7  UNL     1     -20.956  10.152  37.884  0.00  0.00    +0.055 A 
BRANCH   6  13
ATOM     12  C1  UNL     1     -23.559  11.276  37.252  0.00  0.00    +0.277 C 
ATOM     13  O1  UNL     1     -23.081  10.079  36.656  0.00  0.00    -0.491 OA
ENDBRANCH   6  13
BRANCH   7  14
ATOM     14  O6  UNL     1     -22.972   7.407  36.548  0.00  0.00    -0.503 OA
ATOM     15  H22 UNL     1     -22.601   6.852  35.845  0.00  0.00    +0.292 HD
ENDBRANCH   7  14
ENDBRANCH   1  10
BRANCH   4  16
ATOM     16  C13 UNL     1     -16.655  12.295  40.133  0.00  0.00    -0.038 A 
ATOM     17  C14 UNL     1     -17.425  13.401  39.718  0.00  0.00    +0.053 A 
ATOM     18  C15 UNL     1     -17.561  14.538  40.523  0.00  0.00    +0.162 A 
ATOM     19  C16 UNL     1     -16.915  14.559  41.765  0.00  0.00    +0.158 A 
ATOM     20  C17 UNL     1     -16.155  13.474  42.197  0.00  0.00    +0.049 A 
ATOM     21  C18 UNL     1     -16.028  12.347  41.386  0.00  0.00    +0.008 A 
BRANCH  19  22
ATOM     22  O4  UNL     1     -17.039  15.664  42.566  0.00  0.00    -0.503 OA
ATOM     23  H18 UNL     1     -17.622  15.451  43.310  0.00  0.00    +0.292 HD
ENDBRANCH  19  22
BRANCH  18  24
ATOM     24  O5  UNL     1     -18.288  15.651  40.197  0.00  0.00    -0.491 OA
ATOM     25  C19 UNL     1     -19.591  15.451  39.670  0.00  0.00    +0.277 C 
ENDBRANCH  18  24
ENDBRANCH   4  16
BRANCH   5  26
ATOM     26  C12 UNL     1     -17.482  10.344  36.962  0.00  0.00    +0.162 C 
BRANCH  26  27
ATOM     27  O3  UNL     1     -16.370  11.018  36.378  0.00  0.00    -0.395 OA
ATOM     28  H14 UNL     1     -15.884  10.358  35.853  0.00  0.00    +0.209 HD
ENDBRANCH  26  27
ENDBRANCH   5  26
TORSDOF 8
ENDMDL
MODEL 7
REMARK VINA RESULT:    -6.898      1.535      2.264
REMARK INTER + INTRA:         -10.238
REMARK INTER:                  -9.442
REMARK INTRA:                  -0.795
REMARK UNBOUND:                -0.719
REMARK  Name = data/mahkota_dewa_dn/results/docking/ligands/pdb/Lariciresinol.pdb
REMARK  10 active torsions:
REMARK  status: ('A' for Active; 'I' for Inactive)
REMARK    1  A    between atoms: C1_1  and  O1_2
REMARK    2  A    between atoms: O1_2  and  C2_3
REMARK    3  A    between atoms: C3_4  and  O6_25
REMARK    4  A    between atoms: C6_7  and  C8_9
REMARK    5  A    between atoms: C10_12  and  C13_16
REMARK    6  A    between atoms: C11_13  and  C12_14
REMARK    7  A    between atoms: C12_14  and  O3_15
REMARK    8  A    between atoms: C15_18  and  O5_23
REMARK    9  A    between atoms: C16_19  and  O4_22
REMARK   10  A    between atoms: O5_23  and  C19_24
REMARK                            x       y       z     vdW  Elec       q    Type
REMARK                         _______ _______ _______ _____ _____    ______ ____
ROOT
ATOM      1  C8  UNL     1     -19.422  10.190  37.402  0.00  0.00    +0.154 C 
ATOM      2  O2  UNL     1     -18.122   9.566  37.359  0.00  0.00    -0.371 OA
ATOM      3  C9  UNL     1     -17.156  10.546  36.944  0.00  0.00    +0.169 C 
ATOM      4  C10 UNL     1     -17.853  11.905  36.910  0.00  0.00    +0.053 C 
ATOM      5  C11 UNL     1     -19.303  11.503  36.615  0.00  0.00    +0.057 C 
ENDROOT
BRANCH   1  10
ATOM      6  C2  UNL     1     -22.886   8.767  36.560  0.00  0.00    +0.162 A 
ATOM      7  C3  UNL     1     -22.535   7.462  36.195  0.00  0.00    +0.158 A 
ATOM      8  C4  UNL     1     -21.204   7.047  36.200  0.00  0.00    +0.049 A 
ATOM      9  C5  UNL     1     -20.204   7.941  36.584  0.00  0.00    +0.010 A 
ATOM     10  C6  UNL     1     -20.527   9.253  36.965  0.00  0.00    -0.015 A 
ATOM     11  C7  UNL     1     -21.875   9.654  36.946  0.00  0.00    +0.055 A 
BRANCH   6  13
ATOM     12  C1  UNL     1     -24.581  10.444  36.539  0.00  0.00    +0.277 C 
ATOM     13  O1  UNL     1     -24.222   9.070  36.519  0.00  0.00    -0.491 OA
ENDBRANCH   6  13
BRANCH   7  14
ATOM     14  O6  UNL     1     -23.518   6.583  35.821  0.00  0.00    -0.503 OA
ATOM     15  H22 UNL     1     -23.110   5.747  35.549  0.00  0.00    +0.292 HD
ENDBRANCH   7  14
ENDBRANCH   1  10
BRANCH   4  16
ATOM     16  C13 UNL     1     -17.763  12.746  38.179  0.00  0.00    -0.038 A 
ATOM     17  C14 UNL     1     -18.494  13.952  38.226  0.00  0.00    +0.053 A 
ATOM     18  C15 UNL     1     -18.476  14.771  39.360  0.00  0.00    +0.162 A 
ATOM     19  C16 UNL     1     -17.714  14.369  40.464  0.00  0.00    +0.158 A 
ATOM     20  C17 UNL     1     -16.991  13.179  40.441  0.00  0.00    +0.049 A 
ATOM     21  C18 UNL     1     -17.018  12.370  39.305  0.00  0.00    +0.008 A 
BRANCH  19  22
ATOM     22  O4  UNL     1     -17.687  15.160  41.582  0.00  0.00    -0.503 OA
ATOM     23  H18 UNL     1     -17.795  14.602  42.367  0.00  0.00    +0.292 HD
ENDBRANCH  19  22
BRANCH  18  24
ATOM     24  O5  UNL     1     -19.155  15.954  39.488  0.00  0.00    -0.491 OA
ATOM     25  C19 UNL     1     -20.565  15.886  39.633  0.00  0.00    +0.277 C 
ENDBRANCH  18  24
ENDBRANCH   4  16
BRANCH   5  26
ATOM     26  C12 UNL     1     -19.533  11.342  35.106  0.00  0.00    +0.162 C 
BRANCH  26  27
ATOM     27  O3  UNL     1     -20.764  11.968  34.751  0.00  0.00    -0.395 OA
ATOM     28  H14 UNL     1     -21.415  11.713  35.428  0.00  0.00    +0.209 HD
ENDBRANCH  26  27
ENDBRANCH   5  26
TORSDOF 8
ENDMDL
MODEL 8
REMARK VINA RESULT:    -6.723      9.208     12.024
REMARK INTER + INTRA:          -9.996
REMARK INTER:                  -9.146
REMARK INTRA:                  -0.851
REMARK UNBOUND:                -0.719
REMARK  Name = data/mahkota_dewa_dn/results/docking/ligands/pdb/Lariciresinol.pdb
REMARK  10 active torsions:
REMARK  status: ('A' for Active; 'I' for Inactive)
REMARK    1  A    between atoms: C1_1  and  O1_2
REMARK    2  A    between atoms: O1_2  and  C2_3
REMARK    3  A    between atoms: C3_4  and  O6_25
REMARK    4  A    between atoms: C6_7  and  C8_9
REMARK    5  A    between atoms: C10_12  and  C13_16
REMARK    6  A    between atoms: C11_13  and  C12_14
REMARK    7  A    between atoms: C12_14  and  O3_15
REMARK    8  A    between atoms: C15_18  and  O5_23
REMARK    9  A    between atoms: C16_19  and  O4_22
REMARK   10  A    between atoms: O5_23  and  C19_24
REMARK                            x       y       z     vdW  Elec       q    Type
REMARK                         _______ _______ _______ _____ _____    ______ ____
ROOT
ATOM      1  C8  UNL     1     -16.649   4.788  44.021  0.00  0.00    +0.154 C 
ATOM      2  O2  UNL     1     -16.264   3.441  43.674  0.00  0.00    -0.371 OA
ATOM      3  C9  UNL     1     -16.264   2.642  44.868  0.00  0.00    +0.169 C 
ATOM      4  C10 UNL     1     -16.865   3.482  45.993  0.00  0.00    +0.053 C 
ATOM      5  C11 UNL     1     -16.508   4.904  45.545  0.00  0.00    +0.057 C 
ENDROOT
BRANCH   1  10
ATOM      6  C2  UNL     1     -14.098   6.478  41.703  0.00  0.00    +0.162 A 
ATOM      7  C3  UNL     1     -14.557   7.800  41.755  0.00  0.00    +0.158 A 
ATOM      8  C4  UNL     1     -15.679   8.144  42.507  0.00  0.00    +0.049 A 
ATOM      9  C5  UNL     1     -16.354   7.159  43.228  0.00  0.00    +0.010 A 
ATOM     10  C6  UNL     1     -15.912   5.827  43.205  0.00  0.00    -0.015 A 
ATOM     11  C7  UNL     1     -14.781   5.500  42.435  0.00  0.00    +0.055 A 
BRANCH   6  13
ATOM     12  C1  UNL     1     -12.965   5.063  40.157  0.00  0.00    +0.277 C 
ATOM     13  O1  UNL     1     -12.987   6.251  40.934  0.00  0.00    -0.491 OA
ENDBRANCH   6  13
BRANCH   7  14
ATOM     14  O6  UNL     1     -13.891   8.768  41.048  0.00  0.00    -0.503 OA
ATOM     15  H22 UNL     1     -13.005   8.445  40.826  0.00  0.00    +0.292 HD
ENDBRANCH   7  14
ENDBRANCH   1  10
BRANCH   4  16
ATOM     16  C13 UNL     1     -18.367   3.338  46.219  0.00  0.00    -0.038 A 
ATOM     17  C14 UNL     1     -18.934   2.052  46.092  0.00  0.00    +0.053 A 
ATOM     18  C15 UNL     1     -20.301   1.835  46.298  0.00  0.00    +0.162 A 
ATOM     19  C16 UNL     1     -21.108   2.926  46.641  0.00  0.00    +0.158 A 
ATOM     20  C17 UNL     1     -20.567   4.203  46.778  0.00  0.00    +0.049 A 
ATOM     21  C18 UNL     1     -19.202   4.407  46.571  0.00  0.00    +0.008 A 
BRANCH  19  22
ATOM     22  O4  UNL     1     -22.448   2.730  46.847  0.00  0.00    -0.503 OA
ATOM     23  H18 UNL     1     -22.849   2.402  46.029  0.00  0.00    +0.292 HD
ENDBRANCH  19  22
BRANCH  18  24
ATOM     24  O5  UNL     1     -20.930   0.623  46.195  0.00  0.00    -0.491 OA
ATOM     25  C19 UNL     1     -20.475  -0.424  47.040  0.00  0.00    +0.277 C 
ENDBRANCH  18  24
ENDBRANCH   4  16
BRANCH   5  26
ATOM     26  C12 UNL     1     -15.096   5.288  46.007  0.00  0.00    +0.162 C 
BRANCH  26  27
ATOM     27  O3  UNL     1     -15.125   6.602  46.560  0.00  0.00    -0.395 OA
ATOM     28  H14 UNL     1     -15.954   7.015  46.260  0.00  0.00    +0.209 HD
ENDBRANCH  26  27
ENDBRANCH   5  26
TORSDOF 8
ENDMDL
MODEL 9
REMARK VINA RESULT:    -6.715      1.750      7.379
REMARK INTER + INTRA:          -9.985
REMARK INTER:                  -9.321
REMARK INTRA:                  -0.665
REMARK UNBOUND:                -0.719
REMARK  Name = data/mahkota_dewa_dn/results/docking/ligands/pdb/Lariciresinol.pdb
REMARK  10 active torsions:
REMARK  status: ('A' for Active; 'I' for Inactive)
REMARK    1  A    between atoms: C1_1  and  O1_2
REMARK    2  A    between atoms: O1_2  and  C2_3
REMARK    3  A    between atoms: C3_4  and  O6_25
REMARK    4  A    between atoms: C6_7  and  C8_9
REMARK    5  A    between atoms: C10_12  and  C13_16
REMARK    6  A    between atoms: C11_13  and  C12_14
REMARK    7  A    between atoms: C12_14  and  O3_15
REMARK    8  A    between atoms: C15_18  and  O5_23
REMARK    9  A    between atoms: C16_19  and  O4_22
REMARK   10  A    between atoms: O5_23  and  C19_24
REMARK                            x       y       z     vdW  Elec       q    Type
REMARK                         _______ _______ _______ _____ _____    ______ ____
ROOT
ATOM      1  C8  UNL     1     -18.761  12.424  36.991  0.00  0.00    +0.154 C 
ATOM      2  O2  UNL     1     -17.603  11.879  36.324  0.00  0.00    -0.371 OA
ATOM      3  C9  UNL     1     -17.956  10.606  35.759  0.00  0.00    +0.169 C 
ATOM      4  C10 UNL     1     -19.465  10.428  35.913  0.00  0.00    +0.053 C 
ATOM      5  C11 UNL     1     -19.750  11.264  37.166  0.00  0.00    +0.057 C 
ENDROOT
BRANCH   1  10
ATOM      6  C2  UNL     1     -17.034  13.474  40.255  0.00  0.00    +0.162 A 
ATOM      7  C3  UNL     1     -17.804  14.595  40.591  0.00  0.00    +0.158 A 
ATOM      8  C4  UNL     1     -18.851  15.020  39.776  0.00  0.00    +0.049 A 
ATOM      9  C5  UNL     1     -19.146  14.315  38.608  0.00  0.00    +0.010 A 
ATOM     10  C6  UNL     1     -18.399  13.182  38.249  0.00  0.00    -0.015 A 
ATOM     11  C7  UNL     1     -17.342  12.774  39.083  0.00  0.00    +0.055 A 
BRANCH   6  13
ATOM     12  C1  UNL     1     -15.814  11.764  41.379  0.00  0.00    +0.277 C 
ATOM     13  O1  UNL     1     -16.030  13.144  41.126  0.00  0.00    -0.491 OA
ENDBRANCH   6  13
BRANCH   7  14
ATOM     14  O6  UNL     1     -17.516  15.284  41.740  0.00  0.00    -0.503 OA
ATOM     15  H22 UNL     1     -17.670  16.229  41.590  0.00  0.00    +0.292 HD
ENDBRANCH   7  14
ENDBRANCH   1  10
BRANCH   4  16
ATOM     16  C13 UNL     1     -20.325  10.886  34.739  0.00  0.00    -0.038 A 
ATOM     17  C14 UNL     1     -21.722  10.948  34.928  0.00  0.00    +0.053 A 
ATOM     18  C15 UNL     1     -22.577  11.372  33.905  0.00  0.00    +0.162 A 
ATOM     19  C16 UNL     1     -22.019  11.742  32.676  0.00  0.00    +0.158 A 
ATOM     20  C17 UNL     1     -20.642  11.695  32.471  0.00  0.00    +0.049 A 
ATOM     21  C18 UNL     1     -19.799  11.271  33.499  0.00  0.00    +0.008 A 
BRANCH  19  22
ATOM     22  O4  UNL     1     -22.843  12.161  31.665  0.00  0.00    -0.503 OA
ATOM     23  H18 UNL     1     -22.980  11.429  31.045  0.00  0.00    +0.292 HD
ENDBRANCH  19  22
BRANCH  18  24
ATOM     24  O5  UNL     1     -23.940  11.462  34.005  0.00  0.00    -0.491 OA
ATOM     25  C19 UNL     1     -24.529  11.122  35.252  0.00  0.00    +0.277 C 
ENDBRANCH  18  24
ENDBRANCH   4  16
BRANCH   5  26
ATOM     26  C12 UNL     1     -19.520  10.441  38.440  0.00  0.00    +0.162 C 
BRANCH  26  27
ATOM     27  O3  UNL     1     -20.607   9.535  38.617  0.00  0.00    -0.395 OA
ATOM     28  H14 UNL     1     -20.226   8.640  38.645  0.00  0.00    +0.209 HD
ENDBRANCH  26  27
ENDBRANCH   5  26
TORSDOF 8
ENDMDL
