MODEL 1
REMARK VINA RESULT:    -8.989      0.000      0.000
REMARK INTER + INTRA:         -13.019
REMARK INTER:                 -12.141
REMARK INTRA:                  -0.877
REMARK UNBOUND:                -0.877
REMARK  Name = data/mahkota_dewa_dn/results/docking/ligands/pdb/264-trihydroxy-4-methoxybenzophenone.pdb
REMARK  8 active torsions:
REMARK  status: ('A' for Active; 'I' for Inactive)
REMARK    1  A    between atoms: C1_1  and  O1_2
REMARK    2  A    between atoms: O1_2  and  C2_3
REMARK    3  A    between atoms: C8_10  and  C9_12
REMARK    4  A    between atoms: C12_15  and  O4_18
REMARK    5  A    between atoms: O4_18  and  C15_19
REMARK    6  A    between atoms: C15_19  and  C16_20
REMARK    7  A    between atoms: C22_26  and  O5_28
REMARK    8  A    between atoms: O5_28  and  C24_29
REMARK                            x       y       z     vdW  Elec       q    Type
REMARK                         _______ _______ _______ _____ _____    ______ ____
ROOT
ATOM      1  C2  UNL     1     -19.067  12.740  36.927  0.00  0.00    +0.127 A 
ATOM      2  C3  UNL     1     -18.314  11.744  37.539  0.00  0.00    +0.092 A 
ATOM      3  C4  UNL     1     -17.677  12.002  38.754  0.00  0.00    +0.139 A 
ATOM      4  C5  UNL     1     -17.757  13.266  39.355  0.00  0.00    +0.101 A 
ATOM      5  C6  UNL     1     -16.985  13.475  40.614  0.00  0.00    +0.174 C 
ATOM      6  O2  UNL     1     -17.051  14.499  41.286  0.00  0.00    -0.292 OA
ATOM      7  C7  UNL     1     -16.062  12.360  41.017  0.00  0.00    +0.129 C 
ATOM      8  C8  UNL     1     -16.750  11.049  40.686  0.00  0.00    +0.211 C 
ATOM      9  O3  UNL     1     -16.969  10.945  39.272  0.00  0.00    -0.483 OA
ATOM     10  C22 UNL     1     -18.517  14.280  38.744  0.00  0.00    +0.138 A 
ATOM     11  C23 UNL     1     -19.167  13.997  37.534  0.00  0.00    +0.092 A 
ENDROOT
BRANCH   8  12
ATOM     12  C9  UNL     1     -15.908   9.870  41.135  0.00  0.00    -0.007 A 
ATOM     13  C10 UNL     1     -16.476   8.781  41.814  0.00  0.00    +0.011 A 
ATOM     14  C11 UNL     1     -15.694   7.687  42.201  0.00  0.00    +0.046 A 
ATOM     15  C12 UNL     1     -14.331   7.663  41.916  0.00  0.00    +0.121 A 
ATOM     16  C13 UNL     1     -13.762   8.735  41.224  0.00  0.00    +0.046 A 
ATOM     17  C14 UNL     1     -14.539   9.830  40.838  0.00  0.00    +0.011 A 
BRANCH  15  18
ATOM     18  O4  UNL     1     -13.458   6.656  42.223  0.00  0.00    -0.487 OA
BRANCH  18  19
ATOM     19  C15 UNL     1     -12.907   5.889  41.149  0.00  0.00    +0.264 C 
BRANCH  19  20
ATOM     20  C16 UNL     1     -13.416   4.466  41.094  0.00  0.00    -0.010 A 
ATOM     21  C17 UNL     1     -12.686   3.406  41.650  0.00  0.00    +0.007 A 
ATOM     22  C18 UNL     1     -13.186   2.103  41.613  0.00  0.00    +0.000 A 
ATOM     23  C19 UNL     1     -14.426   1.847  41.031  0.00  0.00    +0.000 A 
ATOM     24  C20 UNL     1     -15.169   2.893  40.489  0.00  0.00    +0.000 A 
ATOM     25  C21 UNL     1     -14.670   4.196  40.525  0.00  0.00    +0.007 A 
ENDBRANCH  19  20
ENDBRANCH  18  19
ENDBRANCH  15  18
ENDBRANCH   8  12
BRANCH   1  27
ATOM     26  C1  UNL     1     -20.790  11.651  35.698  0.00  0.00    +0.277 C 
ATOM     27  O1  UNL     1     -19.749  12.622  35.747  0.00  0.00    -0.495 OA
ENDBRANCH   1  27
BRANCH  10  28
ATOM     28  O5  UNL     1     -18.568  15.497  39.362  0.00  0.00    -0.494 OA
ATOM     29  C24 UNL     1     -19.841  16.059  39.652  0.00  0.00    +0.277 C 
ENDBRANCH  10  28
TORSDOF 6
ENDMDL
MODEL 2
REMARK VINA RESULT:    -8.966      2.515     10.463
REMARK INTER + INTRA:         -12.989
REMARK INTER:                 -12.147
REMARK INTRA:                  -0.841
REMARK UNBOUND:                -0.877
REMARK  Name = data/mahkota_dewa_dn/results/docking/ligands/pdb/264-trihydroxy-4-methoxybenzophenone.pdb
REMARK  8 active torsions:
REMARK  status: ('A' for Active; 'I' for Inactive)
REMARK    1  A    between atoms: C1_1  and  O1_2
REMARK    2  A    between atoms: O1_2  and  C2_3
REMARK    3  A    between atoms: C8_10  and  C9_12
REMARK    4  A    between atoms: C12_15  and  O4_18
REMARK    5  A    between atoms: O4_18  and  C15_19
REMARK    6  A    between atoms: C15_19  and  C16_20
REMARK    7  A    between atoms: C22_26  and  O5_28
REMARK    8  A    between atoms: O5_28  and  C24_29
REMARK                            x       y       z     vdW  Elec       q    Type
REMARK                         _______ _______ _______ _____ _____    ______ ____
ROOT
ATOM      1  C2  UNL     1     -14.802   3.703  45.410  0.00  0.00    +0.127 A 
ATOM      2  C3  UNL     1     -14.972   4.995  44.924  0.00  0.00    +0.092 A 
ATOM      3  C4  UNL     1     -14.468   5.337  43.668  0.00  0.00    +0.139 A 
ATOM      4  C5  UNL     1     -13.761   4.404  42.897  0.00  0.00    +0.101 A 
ATOM      5  C6  UNL     1     -13.195   4.876  41.601  0.00  0.00    +0.174 C 
ATOM      6  O2  UNL     1     -12.645   4.136  40.793  0.00  0.00    -0.292 OA
ATOM      7  C7  UNL     1     -13.293   6.352  41.335  0.00  0.00    +0.129 C 
ATOM      8  C8  UNL     1     -14.632   6.828  41.866  0.00  0.00    +0.211 C 
ATOM      9  O3  UNL     1     -14.701   6.635  43.286  0.00  0.00    -0.483 OA
ATOM     10  C22 UNL     1     -13.585   3.094  43.380  0.00  0.00    +0.138 A 
ATOM     11  C23 UNL     1     -14.116   2.762  44.635  0.00  0.00    +0.092 A 
ENDROOT
BRANCH   8  12
ATOM     12  C9  UNL     1     -14.838   8.301  41.565  0.00  0.00    -0.007 A 
ATOM     13  C10 UNL     1     -13.802   9.094  41.049  0.00  0.00    +0.011 A 
ATOM     14  C11 UNL     1     -14.011  10.446  40.751  0.00  0.00    +0.046 A 
ATOM     15  C12 UNL     1     -15.260  11.027  40.965  0.00  0.00    +0.121 A 
ATOM     16  C13 UNL     1     -16.300  10.238  41.462  0.00  0.00    +0.046 A 
ATOM     17  C14 UNL     1     -16.095   8.889  41.762  0.00  0.00    +0.011 A 
BRANCH  15  18
ATOM     18  O4  UNL     1     -15.602  12.325  40.707  0.00  0.00    -0.487 OA
BRANCH  18  19
ATOM     19  C15 UNL     1     -16.877  12.790  41.158  0.00  0.00    +0.264 C 
BRANCH  19  20
ATOM     20  C16 UNL     1     -17.641  13.578  40.116  0.00  0.00    -0.010 A 
ATOM     21  C17 UNL     1     -17.719  13.145  38.785  0.00  0.00    +0.007 A 
ATOM     22  C18 UNL     1     -18.451  13.871  37.843  0.00  0.00    +0.000 A 
ATOM     23  C19 UNL     1     -19.122  15.032  38.226  0.00  0.00    +0.000 A 
ATOM     24  C20 UNL     1     -19.065  15.464  39.548  0.00  0.00    +0.000 A 
ATOM     25  C21 UNL     1     -18.334  14.739  40.490  0.00  0.00    +0.007 A 
ENDBRANCH  19  20
ENDBRANCH  18  19
ENDBRANCH  15  18
ENDBRANCH   8  12
BRANCH   1  27
ATOM     26  C1  UNL     1     -16.496   2.540  46.611  0.00  0.00    +0.277 C 
ATOM     27  O1  UNL     1     -15.251   3.231  46.613  0.00  0.00    -0.495 OA
ENDBRANCH   1  27
BRANCH  10  28
ATOM     28  O5  UNL     1     -12.890   2.216  42.597  0.00  0.00    -0.494 OA
ATOM     29  C24 UNL     1     -13.445   0.929  42.362  0.00  0.00    +0.277 C 
ENDBRANCH  10  28
TORSDOF 6
ENDMDL
MODEL 3
REMARK VINA RESULT:    -8.856      2.691     10.303
REMARK INTER + INTRA:         -12.839
REMARK INTER:                 -11.984
REMARK INTRA:                  -0.855
REMARK UNBOUND:                -0.877
REMARK  Name = data/mahkota_dewa_dn/results/docking/ligands/pdb/264-trihydroxy-4-methoxybenzophenone.pdb
REMARK  8 active torsions:
REMARK  status: ('A' for Active; 'I' for Inactive)
REMARK    1  A    between atoms: C1_1  and  O1_2
REMARK    2  A    between atoms: O1_2  and  C2_3
REMARK    3  A    between atoms: C8_10  and  C9_12
REMARK    4  A    between atoms: C12_15  and  O4_18
REMARK    5  A    between atoms: O4_18  and  C15_19
REMARK    6  A    between atoms: C15_19  and  C16_20
REMARK    7  A    between atoms: C22_26  and  O5_28
REMARK    8  A    between atoms: O5_28  and  C24_29
REMARK                            x       y       z     vdW  Elec       q    Type
REMARK                         _______ _______ _______ _____ _____    ______ ____
ROOT
ATOM      1  C2  UNL     1     -13.531   2.629  43.431  0.00  0.00    +0.127 A 
ATOM      2  C3  UNL     1     -13.731   3.803  42.712  0.00  0.00    +0.092 A 
ATOM      3  C4  UNL     1     -14.437   4.861  43.288  0.00  0.00    +0.139 A 
ATOM      4  C5  UNL     1     -14.978   4.747  44.577  0.00  0.00    +0.101 A 
ATOM      5  C6  UNL     1     -15.779   5.898  45.085  0.00  0.00    +0.174 C 
ATOM      6  O2  UNL     1     -16.220   5.963  46.227  0.00  0.00    -0.292 OA
ATOM      7  C7  UNL     1     -16.070   6.991  44.095  0.00  0.00    +0.129 C 
ATOM      8  C8  UNL     1     -14.835   7.170  43.232  0.00  0.00    +0.211 C 
ATOM      9  O3  UNL     1     -14.566   5.972  42.492  0.00  0.00    -0.483 OA
ATOM     10  C22 UNL     1     -14.780   3.565  45.312  0.00  0.00    +0.138 A 
ATOM     11  C23 UNL     1     -14.051   2.520  44.725  0.00  0.00    +0.092 A 
ENDROOT
BRANCH   8  12
ATOM     12  C9  UNL     1     -15.024   8.314  42.253  0.00  0.00    -0.007 A 
ATOM     13  C10 UNL     1     -13.940   8.863  41.552  0.00  0.00    +0.011 A 
ATOM     14  C11 UNL     1     -14.130   9.901  40.632  0.00  0.00    +0.046 A 
ATOM     15  C12 UNL     1     -15.407  10.407  40.399  0.00  0.00    +0.121 A 
ATOM     16  C13 UNL     1     -16.493   9.853  41.080  0.00  0.00    +0.046 A 
ATOM     17  C14 UNL     1     -16.307   8.817  42.000  0.00  0.00    +0.011 A 
BRANCH  15  18
ATOM     18  O4  UNL     1     -15.733  11.405  39.522  0.00  0.00    -0.487 OA
BRANCH  18  19
ATOM     19  C15 UNL     1     -17.118  11.642  39.255  0.00  0.00    +0.264 C 
BRANCH  19  20
ATOM     20  C16 UNL     1     -17.517  13.097  39.363  0.00  0.00    -0.010 A 
ATOM     21  C17 UNL     1     -17.959  13.819  38.245  0.00  0.00    +0.007 A 
ATOM     22  C18 UNL     1     -18.349  15.154  38.370  0.00  0.00    +0.000 A 
ATOM     23  C19 UNL     1     -18.312  15.778  39.616  0.00  0.00    +0.000 A 
ATOM     24  C20 UNL     1     -17.890  15.068  40.737  0.00  0.00    +0.000 A 
ATOM     25  C21 UNL     1     -17.500  13.734  40.613  0.00  0.00    +0.007 A 
ENDBRANCH  19  20
ENDBRANCH  18  19
ENDBRANCH  15  18
ENDBRANCH   8  12
BRANCH   1  27
ATOM     26  C1  UNL     1     -13.359   0.872  41.836  0.00  0.00    +0.277 C 
ATOM     27  O1  UNL     1     -12.852   1.525  42.995  0.00  0.00    -0.495 OA
ENDBRANCH   1  27
BRANCH  10  28
ATOM     28  O5  UNL     1     -15.324   3.495  46.564  0.00  0.00    -0.494 OA
ATOM     29  C24 UNL     1     -16.229   2.439  46.853  0.00  0.00    +0.277 C 
ENDBRANCH  10  28
TORSDOF 6
ENDMDL
MODEL 4
REMARK VINA RESULT:    -8.641      4.601     10.220
REMARK INTER + INTRA:         -12.549
REMARK INTER:                 -11.729
REMARK INTRA:                  -0.820
REMARK UNBOUND:                -0.877
REMARK  Name = data/mahkota_dewa_dn/results/docking/ligands/pdb/264-trihydroxy-4-methoxybenzophenone.pdb
REMARK  8 active torsions:
REMARK  status: ('A' for Active; 'I' for Inactive)
REMARK    1  A    between atoms: C1_1  and  O1_2
REMARK    2  A    between atoms: O1_2  and  C2_3
REMARK    3  A    between atoms: C8_10  and  C9_12
REMARK    4  A    between atoms: C12_15  and  O4_18
REMARK    5  A    between atoms: O4_18  and  C15_19
REMARK    6  A    between atoms: C15_19  and  C16_20
REMARK    7  A    between atoms: C22_26  and  O5_28
REMARK    8  A    between atoms: O5_28  and  C24_29
REMARK                            x       y       z     vdW  Elec       q    Type
REMARK                         _______ _______ _______ _____ _____    ______ ____
ROOT
ATOM      1  C2  UNL     1     -19.808   4.103  46.372  0.00  0.00    +0.127 A 
ATOM      2  C3  UNL     1     -19.291   5.091  45.540  0.00  0.00    +0.092 A 
ATOM      3  C4  UNL     1     -17.921   5.133  45.278  0.00  0.00    +0.139 A 
ATOM      4  C5  UNL     1     -17.046   4.210  45.869  0.00  0.00    +0.101 A 
ATOM      5  C6  UNL     1     -15.590   4.374  45.592  0.00  0.00    +0.174 C 
ATOM      6  O2  UNL     1     -14.736   3.577  45.967  0.00  0.00    -0.292 OA
ATOM      7  C7  UNL     1     -15.194   5.617  44.846  0.00  0.00    +0.129 C 
ATOM      8  C8  UNL     1     -16.262   5.888  43.803  0.00  0.00    +0.211 C 
ATOM      9  O3  UNL     1     -17.523   6.143  44.437  0.00  0.00    -0.483 OA
ATOM     10  C22 UNL     1     -17.559   3.207  46.711  0.00  0.00    +0.138 A 
ATOM     11  C23 UNL     1     -18.941   3.167  46.947  0.00  0.00    +0.092 A 
ENDROOT
BRANCH   8  12
ATOM     12  C9  UNL     1     -15.893   7.091  42.954  0.00  0.00    -0.007 A 
ATOM     13  C10 UNL     1     -16.855   8.035  42.566  0.00  0.00    +0.011 A 
ATOM     14  C11 UNL     1     -16.499   9.154  41.804  0.00  0.00    +0.046 A 
ATOM     15  C12 UNL     1     -15.174   9.347  41.419  0.00  0.00    +0.121 A 
ATOM     16  C13 UNL     1     -14.207   8.421  41.818  0.00  0.00    +0.046 A 
ATOM     17  C14 UNL     1     -14.560   7.302  42.577  0.00  0.00    +0.011 A 
BRANCH  15  18
ATOM     18  O4  UNL     1     -14.689  10.398  40.690  0.00  0.00    -0.487 OA
BRANCH  18  19
ATOM     19  C15 UNL     1     -15.572  11.046  39.770  0.00  0.00    +0.264 C 
BRANCH  19  20
ATOM     20  C16 UNL     1     -16.207  12.304  40.321  0.00  0.00    -0.010 A 
ATOM     21  C17 UNL     1     -17.299  12.911  39.684  0.00  0.00    +0.007 A 
ATOM     22  C18 UNL     1     -17.889  14.056  40.223  0.00  0.00    +0.000 A 
ATOM     23  C19 UNL     1     -17.401  14.600  41.410  0.00  0.00    +0.000 A 
ATOM     24  C20 UNL     1     -16.327  13.998  42.062  0.00  0.00    +0.000 A 
ATOM     25  C21 UNL     1     -15.737  12.853  41.524  0.00  0.00    +0.007 A 
ENDBRANCH  19  20
ENDBRANCH  18  19
ENDBRANCH  15  18
ENDBRANCH   8  12
BRANCH   1  27
ATOM     26  C1  UNL     1     -21.648   2.617  46.635  0.00  0.00    +0.277 C 
ATOM     27  O1  UNL     1     -21.124   3.939  46.704  0.00  0.00    -0.495 OA
ENDBRANCH   1  27
BRANCH  10  28
ATOM     28  O5  UNL     1     -16.673   2.328  47.267  0.00  0.00    -0.494 OA
ATOM     29  C24 UNL     1     -17.109   1.515  48.347  0.00  0.00    +0.277 C 
ENDBRANCH  10  28
TORSDOF 6
ENDMDL
MODEL 5
REMARK VINA RESULT:    -8.361      1.694      2.107
REMARK INTER + INTRA:         -12.171
REMARK INTER:                 -11.336
REMARK INTRA:                  -0.835
REMARK UNBOUND:                -0.877
REMARK  Name = data/mahkota_dewa_dn/results/docking/ligands/pdb/264-trihydroxy-4-methoxybenzophenone.pdb
REMARK  8 active torsions:
REMARK  status: ('A' for Active; 'I' for Inactive)
REMARK    1  A    between atoms: C1_1  and  O1_2
REMARK    2  A    between atoms: O1_2  and  C2_3
REMARK    3  A    between atoms: C8_10  and  C9_12
REMARK    4  A    between atoms: C12_15  and  O4_18
REMARK    5  A    between atoms: O4_18  and  C15_19
REMARK    6  A    between atoms: C15_19  and  C16_20
REMARK    7  A    between atoms: C22_26  and  O5_28
REMARK    8  A    between atoms: O5_28  and  C24_29
REMARK                            x       y       z     vdW  Elec       q    Type
REMARK                         _______ _______ _______ _____ _____    ______ ____
ROOT
ATOM      1  C2  UNL     1     -21.654  11.865  38.465  0.00  0.00    +0.127 A 
ATOM      2  C3  UNL     1     -20.596  11.076  38.902  0.00  0.00    +0.092 A 
ATOM      3  C4  UNL     1     -19.392  11.673  39.281  0.00  0.00    +0.139 A 
ATOM      4  C5  UNL     1     -19.220  13.062  39.198  0.00  0.00    +0.101 A 
ATOM      5  C6  UNL     1     -17.879  13.607  39.554  0.00  0.00    +0.174 C 
ATOM      6  O2  UNL     1     -17.630  14.807  39.617  0.00  0.00    -0.292 OA
ATOM      7  C7  UNL     1     -16.796  12.594  39.799  0.00  0.00    +0.129 C 
ATOM      8  C8  UNL     1     -17.422  11.419  40.526  0.00  0.00    +0.211 C 
ATOM      9  O3  UNL     1     -18.421  10.799  39.704  0.00  0.00    -0.483 OA
ATOM     10  C22 UNL     1     -20.285  13.869  38.758  0.00  0.00    +0.138 A 
ATOM     11  C23 UNL     1     -21.493  13.254  38.400  0.00  0.00    +0.092 A 
ENDROOT
BRANCH   8  12
ATOM     12  C9  UNL     1     -16.371  10.382  40.878  0.00  0.00    -0.007 A 
ATOM     13  C10 UNL     1     -15.009  10.605  40.625  0.00  0.00    +0.011 A 
ATOM     14  C11 UNL     1     -14.046   9.652  40.977  0.00  0.00    +0.046 A 
ATOM     15  C12 UNL     1     -14.430   8.460  41.589  0.00  0.00    +0.121 A 
ATOM     16  C13 UNL     1     -15.782   8.240  41.861  0.00  0.00    +0.046 A 
ATOM     17  C14 UNL     1     -16.746   9.188  41.509  0.00  0.00    +0.011 A 
BRANCH  15  18
ATOM     18  O4  UNL     1     -13.596   7.455  41.995  0.00  0.00    -0.487 OA
BRANCH  18  19
ATOM     19  C15 UNL     1     -14.129   6.439  42.848  0.00  0.00    +0.264 C 
BRANCH  19  20
ATOM     20  C16 UNL     1     -13.707   5.038  42.462  0.00  0.00    -0.010 A 
ATOM     21  C17 UNL     1     -14.142   3.917  43.184  0.00  0.00    +0.007 A 
ATOM     22  C18 UNL     1     -13.763   2.631  42.795  0.00  0.00    +0.000 A 
ATOM     23  C19 UNL     1     -12.955   2.450  41.674  0.00  0.00    +0.000 A 
ATOM     24  C20 UNL     1     -12.529   3.554  40.938  0.00  0.00    +0.000 A 
ATOM     25  C21 UNL     1     -12.907   4.840  41.326  0.00  0.00    +0.007 A 
ENDBRANCH  19  20
ENDBRANCH  18  19
ENDBRANCH  15  18
ENDBRANCH   8  12
BRANCH   1  27
ATOM     26  C1  UNL     1     -23.516  12.108  37.003  0.00  0.00    +0.277 C 
ATOM     27  O1  UNL     1     -22.885  11.416  38.075  0.00  0.00    -0.495 OA
ENDBRANCH   1  27
BRANCH  10  28
ATOM     28  O5  UNL     1     -20.075  15.218  38.691  0.00  0.00    -0.494 OA
ATOM     29  C24 UNL     1     -20.848  16.068  39.527  0.00  0.00    +0.277 C 
ENDBRANCH  10  28
TORSDOF 6
ENDMDL
MODEL 6
REMARK VINA RESULT:    -8.327      1.645      3.480
REMARK INTER + INTRA:         -12.125
REMARK INTER:                 -11.257
REMARK INTRA:                  -0.868
REMARK UNBOUND:                -0.877
REMARK  Name = data/mahkota_dewa_dn/results/docking/ligands/pdb/264-trihydroxy-4-methoxybenzophenone.pdb
REMARK  8 active torsions:
REMARK  status: ('A' for Active; 'I' for Inactive)
REMARK    1  A    between atoms: C1_1  and  O1_2
REMARK    2  A    between atoms: O1_2  and  C2_3
REMARK    3  A    between atoms: C8_10  and  C9_12
REMARK    4  A    between atoms: C12_15  and  O4_18
REMARK    5  A    between atoms: O4_18  and  C15_19
REMARK    6  A    between atoms: C15_19  and  C16_20
REMARK    7  A    between atoms: C22_26  and  O5_28
REMARK    8  A    between atoms: O5_28  and  C24_29
REMARK                            x       y       z     vdW  Elec       q    Type
REMARK                         _______ _______ _______ _____ _____    ______ ____
ROOT
ATOM      1  C2  UNL     1     -16.834  14.595  42.227  0.00  0.00    +0.127 A 
ATOM      2  C3  UNL     1     -16.440  13.287  42.487  0.00  0.00    +0.092 A 
ATOM      3  C4  UNL     1     -16.638  12.296  41.524  0.00  0.00    +0.139 A 
ATOM      4  C5  UNL     1     -17.261  12.593  40.303  0.00  0.00    +0.101 A 
ATOM      5  C6  UNL     1     -17.498  11.460  39.363  0.00  0.00    +0.174 C 
ATOM      6  O2  UNL     1     -17.942  11.603  38.229  0.00  0.00    -0.292 OA
ATOM      7  C7  UNL     1     -17.201  10.086  39.895  0.00  0.00    +0.129 C 
ATOM      8  C8  UNL     1     -15.959  10.185  40.760  0.00  0.00    +0.211 C 
ATOM      9  O3  UNL     1     -16.203  11.044  41.883  0.00  0.00    -0.483 OA
ATOM     10  C22 UNL     1     -17.662  13.913  40.031  0.00  0.00    +0.138 A 
ATOM     11  C23 UNL     1     -17.437  14.900  41.002  0.00  0.00    +0.092 A 
ENDROOT
BRANCH   8  12
ATOM     12  C9  UNL     1     -15.550   8.818  41.275  0.00  0.00    -0.007 A 
ATOM     13  C10 UNL     1     -16.504   7.875  41.685  0.00  0.00    +0.011 A 
ATOM     14  C11 UNL     1     -16.115   6.607  42.134  0.00  0.00    +0.046 A 
ATOM     15  C12 UNL     1     -14.766   6.261  42.179  0.00  0.00    +0.121 A 
ATOM     16  C13 UNL     1     -13.812   7.189  41.753  0.00  0.00    +0.046 A 
ATOM     17  C14 UNL     1     -14.196   8.456  41.306  0.00  0.00    +0.011 A 
BRANCH  15  18
ATOM     18  O4  UNL     1     -14.253   5.059  42.580  0.00  0.00    -0.487 OA
BRANCH  18  19
ATOM     19  C15 UNL     1     -13.437   4.332  41.658  0.00  0.00    +0.264 C 
BRANCH  19  20
ATOM     20  C16 UNL     1     -14.110   3.100  41.092  0.00  0.00    -0.010 A 
ATOM     21  C17 UNL     1     -13.698   1.810  41.454  0.00  0.00    +0.007 A 
ATOM     22  C18 UNL     1     -14.349   0.686  40.943  0.00  0.00    +0.000 A 
ATOM     23  C19 UNL     1     -15.427   0.840  40.072  0.00  0.00    +0.000 A 
ATOM     24  C20 UNL     1     -15.857   2.116  39.716  0.00  0.00    +0.000 A 
ATOM     25  C21 UNL     1     -15.206   3.240  40.227  0.00  0.00    +0.007 A 
ENDBRANCH  19  20
ENDBRANCH  18  19
ENDBRANCH  15  18
ENDBRANCH   8  12
BRANCH   1  27
ATOM     26  C1  UNL     1     -17.018  15.448  44.442  0.00  0.00    +0.277 C 
ATOM     27  O1  UNL     1     -16.691  15.660  43.073  0.00  0.00    -0.495 OA
ENDBRANCH   1  27
BRANCH  10  28
ATOM     28  O5  UNL     1     -18.266  14.160  38.830  0.00  0.00    -0.494 OA
ATOM     29  C24 UNL     1     -19.576  14.711  38.828  0.00  0.00    +0.277 C 
ENDBRANCH  10  28
TORSDOF 6
ENDMDL
MODEL 7
REMARK VINA RESULT:    -8.017      1.800      2.156
REMARK INTER + INTRA:         -11.707
REMARK INTER:                 -10.920
REMARK INTRA:                  -0.787
REMARK UNBOUND:                -0.877
REMARK  Name = data/mahkota_dewa_dn/results/docking/ligands/pdb/264-trihydroxy-4-methoxybenzophenone.pdb
REMARK  8 active torsions:
REMARK  status: ('A' for Active; 'I' for Inactive)
REMARK    1  A    between atoms: C1_1  and  O1_2
REMARK    2  A    between atoms: O1_2  and  C2_3
REMARK    3  A    between atoms: C8_10  and  C9_12
REMARK    4  A    between atoms: C12_15  and  O4_18
REMARK    5  A    between atoms: O4_18  and  C15_19
REMARK    6  A    between atoms: C15_19  and  C16_20
REMARK    7  A    between atoms: C22_26  and  O5_28
REMARK    8  A    between atoms: O5_28  and  C24_29
REMARK                            x       y       z     vdW  Elec       q    Type
REMARK                         _______ _______ _______ _____ _____    ______ ____
ROOT
ATOM      1  C2  UNL     1     -19.802  12.289  37.191  0.00  0.00    +0.127 A 
ATOM      2  C3  UNL     1     -18.965  11.344  37.774  0.00  0.00    +0.092 A 
ATOM      3  C4  UNL     1     -18.133  11.711  38.834  0.00  0.00    +0.139 A 
ATOM      4  C5  UNL     1     -18.104  13.032  39.302  0.00  0.00    +0.101 A 
ATOM      5  C6  UNL     1     -17.133  13.351  40.388  0.00  0.00    +0.174 C 
ATOM      6  O2  UNL     1     -17.080  14.440  40.950  0.00  0.00    -0.292 OA
ATOM      7  C7  UNL     1     -16.163  12.262  40.750  0.00  0.00    +0.129 C 
ATOM      8  C8  UNL     1     -16.906  10.941  40.677  0.00  0.00    +0.211 C 
ATOM      9  O3  UNL     1     -17.357  10.697  39.337  0.00  0.00    -0.483 OA
ATOM     10  C22 UNL     1     -18.948  13.995  38.719  0.00  0.00    +0.138 A 
ATOM     11  C23 UNL     1     -19.792  13.604  37.670  0.00  0.00    +0.092 A 
ENDROOT
BRANCH   8  12
ATOM     12  C9  UNL     1     -16.009   9.794  41.105  0.00  0.00    -0.007 A 
ATOM     13  C10 UNL     1     -14.621   9.836  40.902  0.00  0.00    +0.011 A 
ATOM     14  C11 UNL     1     -13.800   8.783  41.324  0.00  0.00    +0.046 A 
ATOM     15  C12 UNL     1     -14.354   7.671  41.955  0.00  0.00    +0.121 A 
ATOM     16  C13 UNL     1     -15.732   7.632  42.177  0.00  0.00    +0.046 A 
ATOM     17  C14 UNL     1     -16.555   8.680  41.755  0.00  0.00    +0.011 A 
BRANCH  15  18
ATOM     18  O4  UNL     1     -13.669   6.586  42.426  0.00  0.00    -0.487 OA
BRANCH  18  19
ATOM     19  C15 UNL     1     -14.238   5.289  42.223  0.00  0.00    +0.264 C 
BRANCH  19  20
ATOM     20  C16 UNL     1     -14.502   4.534  43.507  0.00  0.00    -0.010 A 
ATOM     21  C17 UNL     1     -14.410   3.136  43.566  0.00  0.00    +0.007 A 
ATOM     22  C18 UNL     1     -14.630   2.459  44.767  0.00  0.00    +0.000 A 
ATOM     23  C19 UNL     1     -14.935   3.172  45.924  0.00  0.00    +0.000 A 
ATOM     24  C20 UNL     1     -15.015   4.562  45.884  0.00  0.00    +0.000 A 
ATOM     25  C21 UNL     1     -14.794   5.240  44.684  0.00  0.00    +0.007 A 
ENDBRANCH  19  20
ENDBRANCH  18  19
ENDBRANCH  15  18
ENDBRANCH   8  12
BRANCH   1  27
ATOM     26  C1  UNL     1     -20.104  11.876  34.867  0.00  0.00    +0.277 C 
ATOM     27  O1  UNL     1     -20.670  12.066  36.158  0.00  0.00    -0.495 OA
ENDBRANCH   1  27
BRANCH  10  28
ATOM     28  O5  UNL     1     -18.888  15.271  39.206  0.00  0.00    -0.494 OA
ATOM     29  C24 UNL     1     -20.103  15.926  39.544  0.00  0.00    +0.277 C 
ENDBRANCH  10  28
TORSDOF 6
ENDMDL
MODEL 8
REMARK VINA RESULT:    -7.756      4.257      9.857
REMARK INTER + INTRA:         -11.353
REMARK INTER:                 -10.506
REMARK INTRA:                  -0.847
REMARK UNBOUND:                -0.877
REMARK  Name = data/mahkota_dewa_dn/results/docking/ligands/pdb/264-trihydroxy-4-methoxybenzophenone.pdb
REMARK  8 active torsions:
REMARK  status: ('A' for Active; 'I' for Inactive)
REMARK    1  A    between atoms: C1_1  and  O1_2
REMARK    2  A    between atoms: O1_2  and  C2_3
REMARK    3  A    between atoms: C8_10  and  C9_12
REMARK    4  A    between atoms: C12_15  and  O4_18
REMARK    5  A    between atoms: O4_18  and  C15_19
REMARK    6  A    between atoms: C15_19  and  C16_20
REMARK    7  A    between atoms: C22_26  and  O5_28
REMARK    8  A    between atoms: O5_28  and  C24_29
REMARK                            x       y       z     vdW  Elec       q    Type
REMARK                         _______ _______ _______ _____ _____    ______ ____
ROOT
ATOM      1  C2  UNL     1     -18.981   1.573  42.857  0.00  0.00    +0.127 A 
ATOM      2  C3  UNL     1     -18.425   2.739  42.342  0.00  0.00    +0.092 A 
ATOM      3  C4  UNL     1     -18.136   3.807  43.193  0.00  0.00    +0.139 A 
ATOM      4  C5  UNL     1     -18.429   3.736  44.563  0.00  0.00    +0.101 A 
ATOM      5  C6  UNL     1     -18.155   4.950  45.384  0.00  0.00    +0.174 C 
ATOM      6  O2  UNL     1     -18.274   4.982  46.604  0.00  0.00    -0.292 OA
ATOM      7  C7  UNL     1     -17.754   6.185  44.628  0.00  0.00    +0.129 C 
ATOM      8  C8  UNL     1     -16.859   5.752  43.481  0.00  0.00    +0.211 C 
ATOM      9  O3  UNL     1     -17.581   4.903  42.579  0.00  0.00    -0.483 OA
ATOM     10  C22 UNL     1     -18.991   2.561  45.093  0.00  0.00    +0.138 A 
ATOM     11  C23 UNL     1     -19.256   1.490  44.227  0.00  0.00    +0.092 A 
ENDROOT
BRANCH   8  12
ATOM     12  C9  UNL     1     -16.350   6.957  42.712  0.00  0.00    -0.007 A 
ATOM     13  C10 UNL     1     -17.217   7.769  41.966  0.00  0.00    +0.011 A 
ATOM     14  C11 UNL     1     -16.739   8.892  41.280  0.00  0.00    +0.046 A 
ATOM     15  C12 UNL     1     -15.387   9.222  41.330  0.00  0.00    +0.121 A 
ATOM     16  C13 UNL     1     -14.521   8.429  42.087  0.00  0.00    +0.046 A 
ATOM     17  C14 UNL     1     -14.994   7.305  42.771  0.00  0.00    +0.011 A 
BRANCH  15  18
ATOM     18  O4  UNL     1     -14.793  10.293  40.722  0.00  0.00    -0.487 OA
BRANCH  18  19
ATOM     19  C15 UNL     1     -15.562  11.047  39.781  0.00  0.00    +0.264 C 
BRANCH  19  20
ATOM     20  C16 UNL     1     -16.178  12.300  40.365  0.00  0.00    -0.010 A 
ATOM     21  C17 UNL     1     -17.220  12.975  39.714  0.00  0.00    +0.007 A 
ATOM     22  C18 UNL     1     -17.794  14.114  40.282  0.00  0.00    +0.000 A 
ATOM     23  C19 UNL     1     -17.339  14.585  41.512  0.00  0.00    +0.000 A 
ATOM     24  C20 UNL     1     -16.315  13.915  42.178  0.00  0.00    +0.000 A 
ATOM     25  C21 UNL     1     -15.741  12.776  41.611  0.00  0.00    +0.007 A 
ENDBRANCH  19  20
ENDBRANCH  18  19
ENDBRANCH  15  18
ENDBRANCH   8  12
BRANCH   1  27
ATOM     26  C1  UNL     1     -20.419   0.544  41.264  0.00  0.00    +0.277 C 
ATOM     27  O1  UNL     1     -19.303   0.452  42.143  0.00  0.00    -0.495 OA
ENDBRANCH   1  27
BRANCH  10  28
ATOM     28  O5  UNL     1     -19.261   2.533  46.432  0.00  0.00    -0.494 OA
ATOM     29  C24 UNL     1     -20.598   2.293  46.851  0.00  0.00    +0.277 C 
ENDBRANCH  10  28
TORSDOF 6
ENDMDL
MODEL 9
REMARK VINA RESULT:    -7.625      3.863     10.301
REMARK INTER + INTRA:         -11.176
REMARK INTER:                 -10.460
REMARK INTRA:                  -0.716
REMARK UNBOUND:                -0.877
REMARK  Name = data/mahkota_dewa_dn/results/docking/ligands/pdb/264-trihydroxy-4-methoxybenzophenone.pdb
REMARK  8 active torsions:
REMARK  status: ('A' for Active; 'I' for Inactive)
REMARK    1  A    between atoms: C1_1  and  O1_2
REMARK    2  A    between atoms: O1_2  and  C2_3
REMARK    3  A    between atoms: C8_10  and  C9_12
REMARK    4  A    between atoms: C12_15  and  O4_18
REMARK    5  A    between atoms: O4_18  and  C15_19
REMARK    6  A    between atoms: C15_19  and  C16_20
REMARK    7  A    between atoms: C22_26  and  O5_28
REMARK    8  A    between atoms: O5_28  and  C24_29
REMARK                            x       y       z     vdW  Elec       q    Type
REMARK                         _______ _______ _______ _____ _____    ______ ____
ROOT
ATOM      1  C2  UNL     1     -15.318   2.217  44.779  0.00  0.00    +0.127 A 
ATOM      2  C3  UNL     1     -15.463   3.271  43.882  0.00  0.00    +0.092 A 
ATOM      3  C4  UNL     1     -16.522   4.169  44.029  0.00  0.00    +0.139 A 
ATOM      4  C5  UNL     1     -17.466   4.007  45.053  0.00  0.00    +0.101 A 
ATOM      5  C6  UNL     1     -18.604   4.970  45.092  0.00  0.00    +0.174 C 
ATOM      6  O2  UNL     1     -19.438   4.996  45.991  0.00  0.00    -0.292 OA
ATOM      7  C7  UNL     1     -18.717   5.909  43.924  0.00  0.00    +0.129 C 
ATOM      8  C8  UNL     1     -17.311   6.319  43.526  0.00  0.00    +0.211 C 
ATOM      9  O3  UNL     1     -16.563   5.173  43.094  0.00  0.00    -0.483 OA
ATOM     10  C22 UNL     1     -17.327   2.946  45.965  0.00  0.00    +0.138 A 
ATOM     11  C23 UNL     1     -16.246   2.065  45.815  0.00  0.00    +0.092 A 
ENDROOT
BRANCH   8  12
ATOM     12  C9  UNL     1     -17.344   7.331  42.396  0.00  0.00    -0.007 A 
ATOM     13  C10 UNL     1     -18.424   7.395  41.502  0.00  0.00    +0.011 A 
ATOM     14  C11 UNL     1     -18.455   8.350  40.480  0.00  0.00    +0.046 A 
ATOM     15  C12 UNL     1     -17.408   9.257  40.334  0.00  0.00    +0.121 A 
ATOM     16  C13 UNL     1     -16.339   9.212  41.232  0.00  0.00    +0.046 A 
ATOM     17  C14 UNL     1     -16.303   8.258  42.254  0.00  0.00    +0.011 A 
BRANCH  15  18
ATOM     18  O4  UNL     1     -17.319  10.245  39.392  0.00  0.00    -0.487 OA
BRANCH  18  19
ATOM     19  C15 UNL     1     -16.229  11.167  39.482  0.00  0.00    +0.264 C 
BRANCH  19  20
ATOM     20  C16 UNL     1     -16.533  12.387  40.324  0.00  0.00    -0.010 A 
ATOM     21  C17 UNL     1     -15.763  12.708  41.451  0.00  0.00    +0.007 A 
ATOM     22  C18 UNL     1     -16.042  13.853  42.199  0.00  0.00    +0.000 A 
ATOM     23  C19 UNL     1     -17.086  14.696  41.822  0.00  0.00    +0.000 A 
ATOM     24  C20 UNL     1     -17.849  14.397  40.696  0.00  0.00    +0.000 A 
ATOM     25  C21 UNL     1     -17.571  13.252  39.947  0.00  0.00    +0.007 A 
ENDBRANCH  19  20
ENDBRANCH  18  19
ENDBRANCH  15  18
ENDBRANCH   8  12
BRANCH   1  27
ATOM     26  C1  UNL     1     -14.085   0.619  43.519  0.00  0.00    +0.277 C 
ATOM     27  O1  UNL     1     -14.327   1.275  44.759  0.00  0.00    -0.495 OA
ENDBRANCH   1  27
BRANCH  10  28
ATOM     28  O5  UNL     1     -18.269   2.824  46.948  0.00  0.00    -0.494 OA
ATOM     29  C24 UNL     1     -18.055   1.871  47.980  0.00  0.00    +0.277 C 
ENDBRANCH  10  28
TORSDOF 6
ENDMDL
