MODEL 1
REMARK VINA RESULT:    -9.148      0.000      0.000
REMARK INTER + INTRA:         -15.089
REMARK INTER:                 -13.694
REMARK INTRA:                  -1.395
REMARK UNBOUND:                -1.395
REMARK  Name = data/mahkota_dewa_dn/results/docking/ligands/pdb/Losartan.pdb
REMARK  10 active torsions:
REMARK  status: ('A' for Active; 'I' for Inactive)
REMARK    1  A    between atoms: C1_1  and  C2_2
REMARK    2  A    between atoms: C2_2  and  C3_3
REMARK    3  A    between atoms: C3_3  and  C4_4
REMARK    4  A    between atoms: C4_4  and  C5_5
REMARK    5  A    between atoms: C7_9  and  C22_29
REMARK    6  A    between atoms: N2_10  and  C8_11
REMARK    7  A    between atoms: C8_11  and  C9_12
REMARK    8  A    between atoms: C12_15  and  C15_18
REMARK    9  A    between atoms: C20_23  and  C21_24
REMARK   10  A    between atoms: C22_29  and  O1_30
REMARK                            x       y       z     vdW  Elec       q    Type
REMARK                         _______ _______ _______ _____ _____    ______ ____
ROOT
ATOM      1  C9  UNL     1     -15.846  10.283  40.373  0.00  0.00    -0.028 A 
ATOM      2  C10 UNL     1     -16.917   9.535  40.877  0.00  0.00    +0.006 A 
ATOM      3  C11 UNL     1     -16.703   8.522  41.817  0.00  0.00    +0.009 A 
ATOM      4  C12 UNL     1     -15.415   8.241  42.292  0.00  0.00    -0.017 A 
ATOM      5  C13 UNL     1     -14.345   9.001  41.800  0.00  0.00    +0.009 A 
ATOM      6  C14 UNL     1     -14.557  10.014  40.859  0.00  0.00    +0.006 A 
ENDROOT
BRANCH   4   7
ATOM      7  C15 UNL     1     -15.189   7.164  43.269  0.00  0.00    -0.007 A 
ATOM      8  C16 UNL     1     -15.551   7.397  44.612  0.00  0.00    +0.009 A 
ATOM      9  C17 UNL     1     -15.415   6.407  45.586  0.00  0.00    +0.001 A 
ATOM     10  C18 UNL     1     -14.919   5.157  45.238  0.00  0.00    +0.001 A 
ATOM     11  C19 UNL     1     -14.550   4.902  43.917  0.00  0.00    +0.012 A 
ATOM     12  C20 UNL     1     -14.666   5.896  42.925  0.00  0.00    +0.030 A 
BRANCH  12  13
ATOM     13  C21 UNL     1     -14.233   5.557  41.576  0.00  0.00    +0.205 A 
ATOM     14  N3  UNL     1     -15.034   5.128  40.586  0.00  0.00    -0.133 NA
ATOM     15  N4  UNL     1     -14.143   5.004  39.596  0.00  0.00    -0.176 N 
ATOM     16  N5  UNL     1     -12.884   5.345  39.888  0.00  0.00    -0.049 NA
ATOM     17  N6  UNL     1     -12.928   5.715  41.161  0.00  0.00    -0.108 NA
ATOM     18  H20 UNL     1     -14.405   4.674  38.670  0.00  0.00    +0.214 HD
ENDBRANCH  12  13
ENDBRANCH   4   7
BRANCH   1  19
ATOM     19  C8  UNL     1     -16.042  11.409  39.383  0.00  0.00    +0.158 C 
BRANCH  19  25
ATOM     20  C5  UNL     1     -17.076  13.209  40.839  0.00  0.00    +0.112 A 
ATOM     21  N1  UNL     1     -18.196  13.901  40.899  0.00  0.00    -0.220 NA
ATOM     22  C6  UNL     1     -18.978  13.458  39.868  0.00  0.00    +0.153 A 
ATOM     23 CL1  UNL     1     -20.536  14.079  39.589  0.00  0.00    -0.060 Cl
ATOM     24  C7  UNL     1     -18.334  12.471  39.153  0.00  0.00    +0.083 A 
ATOM     25  N2  UNL     1     -17.100  12.340  39.765  0.00  0.00    -0.324 N 
BRANCH  20  26
ATOM     26  C4  UNL     1     -15.942  13.356  41.803  0.00  0.00    +0.074 C 
BRANCH  26  27
ATOM     27  C3  UNL     1     -16.203  14.417  42.876  0.00  0.00    +0.007 C 
BRANCH  27  29
ATOM     28  C1  UNL     1     -17.818  14.659  44.842  0.00  0.00    +0.004 C 
ATOM     29  C2  UNL     1     -16.660  13.882  44.239  0.00  0.00    -0.003 C 
ENDBRANCH  27  29
ENDBRANCH  26  27
ENDBRANCH  20  26
BRANCH  24  30
ATOM     30  C22 UNL     1     -18.778  11.691  37.981  0.00  0.00    +0.212 C 
BRANCH  30  31
ATOM     31  O1  UNL     1     -18.819  12.591  36.885  0.00  0.00    -0.389 OA
ATOM     32  H23 UNL     1     -18.978  13.476  37.261  0.00  0.00    +0.210 HD
ENDBRANCH  30  31
ENDBRANCH  24  30
ENDBRANCH  19  25
ENDBRANCH   1  19
TORSDOF 9
ENDMDL
MODEL 2
REMARK VINA RESULT:    -8.986      4.086      6.757
REMARK INTER + INTRA:         -14.847
REMARK INTER:                 -12.703
REMARK INTRA:                  -2.143
REMARK UNBOUND:                -1.395
REMARK  Name = data/mahkota_dewa_dn/results/docking/ligands/pdb/Losartan.pdb
REMARK  10 active torsions:
REMARK  status: ('A' for Active; 'I' for Inactive)
REMARK    1  A    between atoms: C1_1  and  C2_2
REMARK    2  A    between atoms: C2_2  and  C3_3
REMARK    3  A    between atoms: C3_3  and  C4_4
REMARK    4  A    between atoms: C4_4  and  C5_5
REMARK    5  A    between atoms: C7_9  and  C22_29
REMARK    6  A    between atoms: N2_10  and  C8_11
REMARK    7  A    between atoms: C8_11  and  C9_12
REMARK    8  A    between atoms: C12_15  and  C15_18
REMARK    9  A    between atoms: C20_23  and  C21_24
REMARK   10  A    between atoms: C22_29  and  O1_30
REMARK                            x       y       z     vdW  Elec       q    Type
REMARK                         _______ _______ _______ _____ _____    ______ ____
ROOT
ATOM      1  C9  UNL     1     -18.953  10.334  37.156  0.00  0.00    -0.028 A 
ATOM      2  C10 UNL     1     -19.208  10.056  38.505  0.00  0.00    +0.006 A 
ATOM      3  C11 UNL     1     -18.691  10.874  39.514  0.00  0.00    +0.009 A 
ATOM      4  C12 UNL     1     -17.921  12.002  39.203  0.00  0.00    -0.017 A 
ATOM      5  C13 UNL     1     -17.680  12.290  37.852  0.00  0.00    +0.009 A 
ATOM      6  C14 UNL     1     -18.195  11.472  36.841  0.00  0.00    +0.006 A 
ENDROOT
BRANCH   4   7
ATOM      7  C15 UNL     1     -17.364  12.854  40.267  0.00  0.00    -0.007 A 
ATOM      8  C16 UNL     1     -17.920  14.137  40.451  0.00  0.00    +0.009 A 
ATOM      9  C17 UNL     1     -17.481  14.981  41.471  0.00  0.00    +0.001 A 
ATOM     10  C18 UNL     1     -16.478  14.559  42.336  0.00  0.00    +0.001 A 
ATOM     11  C19 UNL     1     -15.909  13.297  42.172  0.00  0.00    +0.012 A 
ATOM     12  C20 UNL     1     -16.330  12.438  41.138  0.00  0.00    +0.030 A 
BRANCH  12  13
ATOM     13  C21 UNL     1     -15.665  11.147  41.018  0.00  0.00    +0.205 A 
ATOM     14  N3  UNL     1     -14.564  10.905  40.286  0.00  0.00    -0.133 NA
ATOM     15  N4  UNL     1     -14.381   9.607  40.555  0.00  0.00    -0.176 N 
ATOM     16  N5  UNL     1     -15.253   9.052  41.404  0.00  0.00    -0.049 NA
ATOM     17  N6  UNL     1     -16.082  10.037  41.719  0.00  0.00    -0.108 NA
ATOM     18  H20 UNL     1     -13.620   9.071  40.145  0.00  0.00    +0.214 HD
ENDBRANCH  12  13
ENDBRANCH   4   7
BRANCH   1  19
ATOM     19  C8  UNL     1     -19.523   9.494  36.036  0.00  0.00    +0.158 C 
BRANCH  19  25
ATOM     20  C5  UNL     1     -21.528  10.861  35.301  0.00  0.00    +0.112 A 
ATOM     21  N1  UNL     1     -21.956  11.470  34.213  0.00  0.00    -0.220 NA
ATOM     22  C6  UNL     1     -21.014  11.242  33.248  0.00  0.00    +0.153 A 
ATOM     23 CL1  UNL     1     -21.184  11.841  31.665  0.00  0.00    -0.060 Cl
ATOM     24  C7  UNL     1     -19.980  10.476  33.743  0.00  0.00    +0.083 A 
ATOM     25  N2  UNL     1     -20.304  10.263  35.071  0.00  0.00    -0.324 N 
BRANCH  20  26
ATOM     26  C4  UNL     1     -22.270  10.833  36.599  0.00  0.00    +0.074 C 
BRANCH  26  27
ATOM     27  C3  UNL     1     -22.605  12.231  37.126  0.00  0.00    +0.007 C 
BRANCH  27  29
ATOM     28  C1  UNL     1     -21.035  13.833  38.350  0.00  0.00    +0.004 C 
ATOM     29  C2  UNL     1     -21.939  12.616  38.452  0.00  0.00    -0.003 C 
ENDBRANCH  27  29
ENDBRANCH  26  27
ENDBRANCH  20  26
BRANCH  24  30
ATOM     30  C22 UNL     1     -18.761   9.969  33.083  0.00  0.00    +0.212 C 
BRANCH  30  31
ATOM     31  O1  UNL     1     -17.660  10.590  33.727  0.00  0.00    -0.389 OA
ATOM     32  H23 UNL     1     -17.083   9.871  34.042  0.00  0.00    +0.210 HD
ENDBRANCH  30  31
ENDBRANCH  24  30
ENDBRANCH  19  25
ENDBRANCH   1  19
TORSDOF 9
ENDMDL
MODEL 3
REMARK VINA RESULT:    -8.740      5.660      8.736
REMARK INTER + INTRA:         -14.477
REMARK INTER:                 -12.292
REMARK INTRA:                  -2.185
REMARK UNBOUND:                -1.395
REMARK  Name = data/mahkota_dewa_dn/results/docking/ligands/pdb/Losartan.pdb
REMARK  10 active torsions:
REMARK  status: ('A' for Active; 'I' for Inactive)
REMARK    1  A    between atoms: C1_1  and  C2_2
REMARK    2  A    between atoms: C2_2  and  C3_3
REMARK    3  A    between atoms: C3_3  and  C4_4
REMARK    4  A    between atoms: C4_4  and  C5_5
REMARK    5  A    between atoms: C7_9  and  C22_29
REMARK    6  A    between atoms: N2_10  and  C8_11
REMARK    7  A    between atoms: C8_11  and  C9_12
REMARK    8  A    between atoms: C12_15  and  C15_18
REMARK    9  A    between atoms: C20_23  and  C21_24
REMARK   10  A    between atoms: C22_29  and  O1_30
REMARK                            x       y       z     vdW  Elec       q    Type
REMARK                         _______ _______ _______ _____ _____    ______ ____
ROOT
ATOM      1  C9  UNL     1     -20.515  11.851  36.319  0.00  0.00    -0.028 A 
ATOM      2  C10 UNL     1     -19.270  12.454  36.098  0.00  0.00    +0.006 A 
ATOM      3  C11 UNL     1     -18.394  12.698  37.161  0.00  0.00    +0.009 A 
ATOM      4  C12 UNL     1     -18.731  12.330  38.471  0.00  0.00    -0.017 A 
ATOM      5  C13 UNL     1     -19.970  11.712  38.689  0.00  0.00    +0.009 A 
ATOM      6  C14 UNL     1     -20.847  11.468  37.628  0.00  0.00    +0.006 A 
ENDROOT
BRANCH   4   7
ATOM      7  C15 UNL     1     -17.816  12.603  39.591  0.00  0.00    -0.007 A 
ATOM      8  C16 UNL     1     -16.845  11.630  39.908  0.00  0.00    +0.009 A 
ATOM      9  C17 UNL     1     -15.909  11.838  40.922  0.00  0.00    +0.001 A 
ATOM     10  C18 UNL     1     -15.919  13.027  41.639  0.00  0.00    +0.001 A 
ATOM     11  C19 UNL     1     -16.870  14.004  41.348  0.00  0.00    +0.012 A 
ATOM     12  C20 UNL     1     -17.832  13.803  40.337  0.00  0.00    +0.030 A 
BRANCH  12  13
ATOM     13  C21 UNL     1     -18.809  14.861  40.114  0.00  0.00    +0.205 A 
ATOM     14  N3  UNL     1     -18.535  16.083  39.625  0.00  0.00    -0.133 NA
ATOM     15  N4  UNL     1     -19.763  16.612  39.604  0.00  0.00    -0.176 N 
ATOM     16  N5  UNL     1     -20.757  15.813  40.009  0.00  0.00    -0.049 NA
ATOM     17  N6  UNL     1     -20.157  14.676  40.332  0.00  0.00    -0.108 NA
ATOM     18  H20 UNL     1     -19.938  17.564  39.294  0.00  0.00    +0.214 HD
ENDBRANCH  12  13
ENDBRANCH   4   7
BRANCH   1  19
ATOM     19  C8  UNL     1     -21.472  11.539  35.192  0.00  0.00    +0.158 C 
BRANCH  19  25
ATOM     20  C5  UNL     1     -21.140   9.102  34.573  0.00  0.00    +0.112 A 
ATOM     21  N1  UNL     1     -21.790   7.962  34.690  0.00  0.00    -0.220 NA
ATOM     22  C6  UNL     1     -22.973   8.255  35.311  0.00  0.00    +0.153 A 
ATOM     23 CL1  UNL     1     -24.136   7.059  35.643  0.00  0.00    -0.060 Cl
ATOM     24  C7  UNL     1     -23.062   9.603  35.586  0.00  0.00    +0.083 A 
ATOM     25  N2  UNL     1     -21.867  10.134  35.137  0.00  0.00    -0.324 N 
BRANCH  20  26
ATOM     26  C4  UNL     1     -19.801   9.247  33.923  0.00  0.00    +0.074 C 
BRANCH  26  27
ATOM     27  C3  UNL     1     -18.733   8.346  34.551  0.00  0.00    +0.007 C 
BRANCH  27  29
ATOM     28  C1  UNL     1     -18.276   8.888  37.006  0.00  0.00    +0.004 C 
ATOM     29  C2  UNL     1     -17.807   9.026  35.567  0.00  0.00    -0.003 C 
ENDBRANCH  27  29
ENDBRANCH  26  27
ENDBRANCH  20  26
BRANCH  24  30
ATOM     30  C22 UNL     1     -24.142  10.382  36.225  0.00  0.00    +0.212 C 
BRANCH  30  31
ATOM     31  O1  UNL     1     -24.986  10.841  35.180  0.00  0.00    -0.389 OA
ATOM     32  H23 UNL     1     -25.828  11.095  35.598  0.00  0.00    +0.210 HD
ENDBRANCH  30  31
ENDBRANCH  24  30
ENDBRANCH  19  25
ENDBRANCH   1  19
TORSDOF 9
ENDMDL
MODEL 4
REMARK VINA RESULT:    -8.554      3.349      8.140
REMARK INTER + INTRA:         -14.200
REMARK INTER:                 -13.030
REMARK INTRA:                  -1.169
REMARK UNBOUND:                -1.395
REMARK  Name = data/mahkota_dewa_dn/results/docking/ligands/pdb/Losartan.pdb
REMARK  10 active torsions:
REMARK  status: ('A' for Active; 'I' for Inactive)
REMARK    1  A    between atoms: C1_1  and  C2_2
REMARK    2  A    between atoms: C2_2  and  C3_3
REMARK    3  A    between atoms: C3_3  and  C4_4
REMARK    4  A    between atoms: C4_4  and  C5_5
REMARK    5  A    between atoms: C7_9  and  C22_29
REMARK    6  A    between atoms: N2_10  and  C8_11
REMARK    7  A    between atoms: C8_11  and  C9_12
REMARK    8  A    between atoms: C12_15  and  C15_18
REMARK    9  A    between atoms: C20_23  and  C21_24
REMARK   10  A    between atoms: C22_29  and  O1_30
REMARK                            x       y       z     vdW  Elec       q    Type
REMARK                         _______ _______ _______ _____ _____    ______ ____
ROOT
ATOM      1  C9  UNL     1     -14.751   8.717  41.875  0.00  0.00    -0.028 A 
ATOM      2  C10 UNL     1     -14.012   9.605  41.082  0.00  0.00    +0.006 A 
ATOM      3  C11 UNL     1     -14.657  10.544  40.270  0.00  0.00    +0.009 A 
ATOM      4  C12 UNL     1     -16.055  10.633  40.242  0.00  0.00    -0.017 A 
ATOM      5  C13 UNL     1     -16.793   9.755  41.049  0.00  0.00    +0.009 A 
ATOM      6  C14 UNL     1     -16.150   8.815  41.860  0.00  0.00    +0.006 A 
ENDROOT
BRANCH   4   7
ATOM      7  C15 UNL     1     -16.732  11.611  39.375  0.00  0.00    -0.007 A 
ATOM      8  C16 UNL     1     -16.952  11.263  38.026  0.00  0.00    +0.009 A 
ATOM      9  C17 UNL     1     -17.633  12.115  37.156  0.00  0.00    +0.001 A 
ATOM     10  C18 UNL     1     -18.116  13.333  37.616  0.00  0.00    +0.001 A 
ATOM     11  C19 UNL     1     -17.908  13.703  38.945  0.00  0.00    +0.012 A 
ATOM     12  C20 UNL     1     -17.210  12.861  39.833  0.00  0.00    +0.030 A 
BRANCH  12  13
ATOM     13  C21 UNL     1     -17.011  13.333  41.197  0.00  0.00    +0.205 A 
ATOM     14  N3  UNL     1     -15.821  13.466  41.808  0.00  0.00    -0.133 NA
ATOM     15  N4  UNL     1     -16.215  13.947  42.993  0.00  0.00    -0.176 N 
ATOM     16  N5  UNL     1     -17.529  14.143  43.143  0.00  0.00    -0.049 NA
ATOM     17  N6  UNL     1     -18.055  13.760  41.987  0.00  0.00    -0.108 NA
ATOM     18  H20 UNL     1     -15.556  14.160  43.737  0.00  0.00    +0.214 HD
ENDBRANCH  12  13
ENDBRANCH   4   7
BRANCH   1  19
ATOM     19  C8  UNL     1     -14.090   7.713  42.792  0.00  0.00    +0.158 C 
BRANCH  19  25
ATOM     20  C5  UNL     1     -15.576   5.827  43.606  0.00  0.00    +0.112 A 
ATOM     21  N1  UNL     1     -15.899   4.603  43.240  0.00  0.00    -0.220 NA
ATOM     22  C6  UNL     1     -15.179   4.337  42.109  0.00  0.00    +0.153 A 
ATOM     23 CL1  UNL     1     -15.282   2.840  41.308  0.00  0.00    -0.060 Cl
ATOM     24  C7  UNL     1     -14.392   5.415  41.763  0.00  0.00    +0.083 A 
ATOM     25  N2  UNL     1     -14.678   6.379  42.713  0.00  0.00    -0.324 N 
BRANCH  20  26
ATOM     26  C4  UNL     1     -16.117   6.515  44.819  0.00  0.00    +0.074 C 
BRANCH  26  27
ATOM     27  C3  UNL     1     -17.425   7.265  44.547  0.00  0.00    +0.007 C 
BRANCH  27  29
ATOM     28  C1  UNL     1     -18.503   5.354  45.858  0.00  0.00    +0.004 C 
ATOM     29  C2  UNL     1     -18.645   6.774  45.334  0.00  0.00    -0.003 C 
ENDBRANCH  27  29
ENDBRANCH  26  27
ENDBRANCH  20  26
BRANCH  24  30
ATOM     30  C22 UNL     1     -13.446   5.592  40.643  0.00  0.00    +0.212 C 
BRANCH  30  31
ATOM     31  O1  UNL     1     -14.124   5.177  39.468  0.00  0.00    -0.389 OA
ATOM     32  H23 UNL     1     -14.503   5.981  39.070  0.00  0.00    +0.210 HD
ENDBRANCH  30  31
ENDBRANCH  24  30
ENDBRANCH  19  25
ENDBRANCH   1  19
TORSDOF 9
ENDMDL
MODEL 5
REMARK VINA RESULT:    -8.511      5.620      8.257
REMARK INTER + INTRA:         -14.134
REMARK INTER:                 -12.222
REMARK INTRA:                  -1.913
REMARK UNBOUND:                -1.395
REMARK  Name = data/mahkota_dewa_dn/results/docking/ligands/pdb/Losartan.pdb
REMARK  10 active torsions:
REMARK  status: ('A' for Active; 'I' for Inactive)
REMARK    1  A    between atoms: C1_1  and  C2_2
REMARK    2  A    between atoms: C2_2  and  C3_3
REMARK    3  A    between atoms: C3_3  and  C4_4
REMARK    4  A    between atoms: C4_4  and  C5_5
REMARK    5  A    between atoms: C7_9  and  C22_29
REMARK    6  A    between atoms: N2_10  and  C8_11
REMARK    7  A    between atoms: C8_11  and  C9_12
REMARK    8  A    between atoms: C12_15  and  C15_18
REMARK    9  A    between atoms: C20_23  and  C21_24
REMARK   10  A    between atoms: C22_29  and  O1_30
REMARK                            x       y       z     vdW  Elec       q    Type
REMARK                         _______ _______ _______ _____ _____    ______ ____
ROOT
ATOM      1  C9  UNL     1     -18.998  10.205  36.643  0.00  0.00    -0.028 A 
ATOM      2  C10 UNL     1     -18.129  11.275  36.391  0.00  0.00    +0.006 A 
ATOM      3  C11 UNL     1     -17.618  12.045  37.440  0.00  0.00    +0.009 A 
ATOM      4  C12 UNL     1     -17.947  11.756  38.771  0.00  0.00    -0.017 A 
ATOM      5  C13 UNL     1     -18.803  10.675  39.025  0.00  0.00    +0.009 A 
ATOM      6  C14 UNL     1     -19.315   9.905  37.977  0.00  0.00    +0.006 A 
ENDROOT
BRANCH   4   7
ATOM      7  C15 UNL     1     -17.421  12.577  39.874  0.00  0.00    -0.007 A 
ATOM      8  C16 UNL     1     -16.440  12.012  40.715  0.00  0.00    +0.009 A 
ATOM      9  C17 UNL     1     -15.856  12.745  41.749  0.00  0.00    +0.001 A 
ATOM     10  C18 UNL     1     -16.237  14.064  41.963  0.00  0.00    +0.001 A 
ATOM     11  C19 UNL     1     -17.208  14.646  41.148  0.00  0.00    +0.012 A 
ATOM     12  C20 UNL     1     -17.817  13.914  40.109  0.00  0.00    +0.030 A 
BRANCH  12  13
ATOM     13  C21 UNL     1     -18.843  14.586  39.321  0.00  0.00    +0.205 A 
ATOM     14  N3  UNL     1     -18.625  15.277  38.188  0.00  0.00    -0.133 NA
ATOM     15  N4  UNL     1     -19.878  15.638  37.886  0.00  0.00    -0.176 N 
ATOM     16  N5  UNL     1     -20.833  15.206  38.717  0.00  0.00    -0.049 NA
ATOM     17  N6  UNL     1     -20.181  14.516  39.642  0.00  0.00    -0.108 NA
ATOM     18  H20 UNL     1     -20.096  16.204  37.070  0.00  0.00    +0.214 HD
ENDBRANCH  12  13
ENDBRANCH   4   7
BRANCH   1  19
ATOM     19  C8  UNL     1     -19.542   9.328  35.539  0.00  0.00    +0.158 C 
BRANCH  19  25
ATOM     20  C5  UNL     1     -22.007   9.871  35.302  0.00  0.00    +0.112 A 
ATOM     21  N1  UNL     1     -22.801  10.477  34.443  0.00  0.00    -0.220 NA
ATOM     22  C6  UNL     1     -22.008  10.884  33.406  0.00  0.00    +0.153 A 
ATOM     23 CL1  UNL     1     -22.641  11.701  32.054  0.00  0.00    -0.060 Cl
ATOM     24  C7  UNL     1     -20.695  10.525  33.623  0.00  0.00    +0.083 A 
ATOM     25  N2  UNL     1     -20.699   9.903  34.858  0.00  0.00    -0.324 N 
BRANCH  20  26
ATOM     26  C4  UNL     1     -22.469   9.244  36.579  0.00  0.00    +0.074 C 
BRANCH  26  27
ATOM     27  C3  UNL     1     -23.365  10.169  37.408  0.00  0.00    +0.007 C 
BRANCH  27  29
ATOM     28  C1  UNL     1     -22.792  12.659  37.429  0.00  0.00    +0.004 C 
ATOM     29  C2  UNL     1     -22.647  11.317  38.128  0.00  0.00    -0.003 C 
ENDBRANCH  27  29
ENDBRANCH  26  27
ENDBRANCH  20  26
BRANCH  24  30
ATOM     30  C22 UNL     1     -19.493  10.732  32.790  0.00  0.00    +0.212 C 
BRANCH  30  31
ATOM     31  O1  UNL     1     -19.465  12.110  32.451  0.00  0.00    -0.389 OA
ATOM     32  H23 UNL     1     -20.329  12.476  32.714  0.00  0.00    +0.210 HD
ENDBRANCH  30  31
ENDBRANCH  24  30
ENDBRANCH  19  25
ENDBRANCH   1  19
TORSDOF 9
ENDMDL
MODEL 6
REMARK VINA RESULT:    -8.500      3.276      7.456
REMARK INTER + INTRA:         -14.119
REMARK INTER:                 -12.600
REMARK INTRA:                  -1.519
REMARK UNBOUND:                -1.395
REMARK  Name = data/mahkota_dewa_dn/results/docking/ligands/pdb/Losartan.pdb
REMARK  10 active torsions:
REMARK  status: ('A' for Active; 'I' for Inactive)
REMARK    1  A    between atoms: C1_1  and  C2_2
REMARK    2  A    between atoms: C2_2  and  C3_3
REMARK    3  A    between atoms: C3_3  and  C4_4
REMARK    4  A    between atoms: C4_4  and  C5_5
REMARK    5  A    between atoms: C7_9  and  C22_29
REMARK    6  A    between atoms: N2_10  and  C8_11
REMARK    7  A    between atoms: C8_11  and  C9_12
REMARK    8  A    between atoms: C12_15  and  C15_18
REMARK    9  A    between atoms: C20_23  and  C21_24
REMARK   10  A    between atoms: C22_29  and  O1_30
REMARK                            x       y       z     vdW  Elec       q    Type
REMARK                         _______ _______ _______ _____ _____    ______ ____
ROOT
ATOM      1  C9  UNL     1     -14.449   8.362  41.584  0.00  0.00    -0.028 A 
ATOM      2  C10 UNL     1     -13.788   9.431  40.964  0.00  0.00    +0.006 A 
ATOM      3  C11 UNL     1     -14.463  10.624  40.687  0.00  0.00    +0.009 A 
ATOM      4  C12 UNL     1     -15.809  10.788  41.038  0.00  0.00    -0.017 A 
ATOM      5  C13 UNL     1     -16.465   9.725  41.674  0.00  0.00    +0.009 A 
ATOM      6  C14 UNL     1     -15.793   8.530  41.950  0.00  0.00    +0.006 A 
ENDROOT
BRANCH   4   7
ATOM      7  C15 UNL     1     -16.522  12.039  40.731  0.00  0.00    -0.007 A 
ATOM      8  C16 UNL     1     -16.443  13.096  41.662  0.00  0.00    +0.009 A 
ATOM      9  C17 UNL     1     -17.048  14.329  41.418  0.00  0.00    +0.001 A 
ATOM     10  C18 UNL     1     -17.743  14.537  40.233  0.00  0.00    +0.001 A 
ATOM     11  C19 UNL     1     -17.840  13.507  39.298  0.00  0.00    +0.012 A 
ATOM     12  C20 UNL     1     -17.247  12.251  39.536  0.00  0.00    +0.030 A 
BRANCH  12  13
ATOM     13  C21 UNL     1     -17.419  11.220  38.521  0.00  0.00    +0.205 A 
ATOM     14  N3  UNL     1     -16.676  11.093  37.407  0.00  0.00    -0.133 NA
ATOM     15  N4  UNL     1     -17.232   9.999  36.874  0.00  0.00    -0.176 N 
ATOM     16  N5  UNL     1     -18.223   9.438  37.576  0.00  0.00    -0.049 NA
ATOM     17  N6  UNL     1     -18.347  10.209  38.647  0.00  0.00    -0.108 NA
ATOM     18  H20 UNL     1     -16.919   9.609  35.989  0.00  0.00    +0.214 HD
ENDBRANCH  12  13
ENDBRANCH   4   7
BRANCH   1  19
ATOM     19  C8  UNL     1     -13.744   7.070  41.932  0.00  0.00    +0.158 C 
BRANCH  19  25
ATOM     20  C5  UNL     1     -15.301   5.740  43.428  0.00  0.00    +0.112 A 
ATOM     21  N1  UNL     1     -16.048   4.657  43.352  0.00  0.00    -0.220 NA
ATOM     22  C6  UNL     1     -15.870   4.153  42.094  0.00  0.00    +0.153 A 
ATOM     23 CL1  UNL     1     -16.645   2.730  41.575  0.00  0.00    -0.060 Cl
ATOM     24  C7  UNL     1     -14.994   4.936  41.371  0.00  0.00    +0.083 A 
ATOM     25  N2  UNL     1     -14.659   5.971  42.226  0.00  0.00    -0.324 N 
BRANCH  20  26
ATOM     26  C4  UNL     1     -15.177   6.596  44.648  0.00  0.00    +0.074 C 
BRANCH  26  27
ATOM     27  C3  UNL     1     -16.447   6.603  45.504  0.00  0.00    +0.007 C 
BRANCH  27  29
ATOM     28  C1  UNL     1     -18.621   7.211  44.307  0.00  0.00    +0.004 C 
ATOM     29  C2  UNL     1     -17.466   7.697  45.167  0.00  0.00    -0.003 C 
ENDBRANCH  27  29
ENDBRANCH  26  27
ENDBRANCH  20  26
BRANCH  24  30
ATOM     30  C22 UNL     1     -14.489   4.787  39.991  0.00  0.00    +0.212 C 
BRANCH  30  31
ATOM     31  O1  UNL     1     -15.623   4.813  39.138  0.00  0.00    -0.389 OA
ATOM     32  H23 UNL     1     -15.721   5.734  38.837  0.00  0.00    +0.210 HD
ENDBRANCH  30  31
ENDBRANCH  24  30
ENDBRANCH  19  25
ENDBRANCH   1  19
TORSDOF 9
ENDMDL
MODEL 7
REMARK VINA RESULT:    -8.471      3.418      8.126
REMARK INTER + INTRA:         -14.076
REMARK INTER:                 -12.780
REMARK INTRA:                  -1.296
REMARK UNBOUND:                -1.395
REMARK  Name = data/mahkota_dewa_dn/results/docking/ligands/pdb/Losartan.pdb
REMARK  10 active torsions:
REMARK  status: ('A' for Active; 'I' for Inactive)
REMARK    1  A    between atoms: C1_1  and  C2_2
REMARK    2  A    between atoms: C2_2  and  C3_3
REMARK    3  A    between atoms: C3_3  and  C4_4
REMARK    4  A    between atoms: C4_4  and  C5_5
REMARK    5  A    between atoms: C7_9  and  C22_29
REMARK    6  A    between atoms: N2_10  and  C8_11
REMARK    7  A    between atoms: C8_11  and  C9_12
REMARK    8  A    between atoms: C12_15  and  C15_18
REMARK    9  A    between atoms: C20_23  and  C21_24
REMARK   10  A    between atoms: C22_29  and  O1_30
REMARK                            x       y       z     vdW  Elec       q    Type
REMARK                         _______ _______ _______ _____ _____    ______ ____
ROOT
ATOM      1  C9  UNL     1     -14.834   8.546  41.637  0.00  0.00    -0.028 A 
ATOM      2  C10 UNL     1     -16.222   8.701  41.745  0.00  0.00    +0.006 A 
ATOM      3  C11 UNL     1     -16.846   9.878  41.320  0.00  0.00    +0.009 A 
ATOM      4  C12 UNL     1     -16.102  10.925  40.759  0.00  0.00    -0.017 A 
ATOM      5  C13 UNL     1     -14.715  10.763  40.636  0.00  0.00    +0.009 A 
ATOM      6  C14 UNL     1     -14.089   9.587  41.062  0.00  0.00    +0.006 A 
ENDROOT
BRANCH   4   7
ATOM      7  C15 UNL     1     -16.758  12.170  40.327  0.00  0.00    -0.007 A 
ATOM      8  C16 UNL     1     -16.799  13.249  41.234  0.00  0.00    +0.009 A 
ATOM      9  C17 UNL     1     -17.357  14.478  40.879  0.00  0.00    +0.001 A 
ATOM     10  C18 UNL     1     -17.882  14.658  39.605  0.00  0.00    +0.001 A 
ATOM     11  C19 UNL     1     -17.857  13.605  38.691  0.00  0.00    +0.012 A 
ATOM     12  C20 UNL     1     -17.311  12.354  39.039  0.00  0.00    +0.030 A 
BRANCH  12  13
ATOM     13  C21 UNL     1     -17.349  11.298  38.035  0.00  0.00    +0.205 A 
ATOM     14  N3  UNL     1     -16.514  11.190  36.987  0.00  0.00    -0.133 NA
ATOM     15  N4  UNL     1     -16.970  10.060  36.435  0.00  0.00    -0.176 N 
ATOM     16  N5  UNL     1     -17.985   9.462  37.068  0.00  0.00    -0.049 NA
ATOM     17  N6  UNL     1     -18.234  10.244  38.109  0.00  0.00    -0.108 NA
ATOM     18  H20 UNL     1     -16.568   9.671  35.586  0.00  0.00    +0.214 HD
ENDBRANCH  12  13
ENDBRANCH   4   7
BRANCH   1  19
ATOM     19  C8  UNL     1     -14.128   7.275  42.053  0.00  0.00    +0.158 C 
BRANCH  19  25
ATOM     20  C5  UNL     1     -15.560   5.185  41.953  0.00  0.00    +0.112 A 
ATOM     21  N1  UNL     1     -16.334   4.486  42.758  0.00  0.00    -0.220 NA
ATOM     22  C6  UNL     1     -16.332   5.139  43.959  0.00  0.00    +0.153 A 
ATOM     23 CL1  UNL     1     -17.231   4.580  45.290  0.00  0.00    -0.060 Cl
ATOM     24  C7  UNL     1     -15.543   6.268  43.901  0.00  0.00    +0.083 A 
ATOM     25  N2  UNL     1     -15.025   6.271  42.619  0.00  0.00    -0.324 N 
BRANCH  20  26
ATOM     26  C4  UNL     1     -15.299   4.838  40.522  0.00  0.00    +0.074 C 
BRANCH  26  27
ATOM     27  C3  UNL     1     -14.278   3.708  40.358  0.00  0.00    +0.007 C 
BRANCH  27  29
ATOM     28  C1  UNL     1     -12.298   2.851  41.727  0.00  0.00    +0.004 C 
ATOM     29  C2  UNL     1     -12.878   3.995  40.912  0.00  0.00    -0.003 C 
ENDBRANCH  27  29
ENDBRANCH  26  27
ENDBRANCH  20  26
BRANCH  24  30
ATOM     30  C22 UNL     1     -15.247   7.286  44.930  0.00  0.00    +0.212 C 
BRANCH  30  31
ATOM     31  O1  UNL     1     -16.461   7.981  45.175  0.00  0.00    -0.389 OA
ATOM     32  H23 UNL     1     -16.478   8.175  46.130  0.00  0.00    +0.210 HD
ENDBRANCH  30  31
ENDBRANCH  24  30
ENDBRANCH  19  25
ENDBRANCH   1  19
TORSDOF 9
ENDMDL
MODEL 8
REMARK VINA RESULT:    -8.411      4.171      7.090
REMARK INTER + INTRA:         -13.985
REMARK INTER:                 -11.571
REMARK INTRA:                  -2.413
REMARK UNBOUND:                -1.395
REMARK  Name = data/mahkota_dewa_dn/results/docking/ligands/pdb/Losartan.pdb
REMARK  10 active torsions:
REMARK  status: ('A' for Active; 'I' for Inactive)
REMARK    1  A    between atoms: C1_1  and  C2_2
REMARK    2  A    between atoms: C2_2  and  C3_3
REMARK    3  A    between atoms: C3_3  and  C4_4
REMARK    4  A    between atoms: C4_4  and  C5_5
REMARK    5  A    between atoms: C7_9  and  C22_29
REMARK    6  A    between atoms: N2_10  and  C8_11
REMARK    7  A    between atoms: C8_11  and  C9_12
REMARK    8  A    between atoms: C12_15  and  C15_18
REMARK    9  A    between atoms: C20_23  and  C21_24
REMARK   10  A    between atoms: C22_29  and  O1_30
REMARK                            x       y       z     vdW  Elec       q    Type
REMARK                         _______ _______ _______ _____ _____    ______ ____
ROOT
ATOM      1  C9  UNL     1     -18.412   9.366  36.823  0.00  0.00    -0.028 A 
ATOM      2  C10 UNL     1     -17.466  10.355  36.522  0.00  0.00    +0.006 A 
ATOM      3  C11 UNL     1     -17.086  11.298  37.482  0.00  0.00    +0.009 A 
ATOM      4  C12 UNL     1     -17.626  11.268  38.774  0.00  0.00    -0.017 A 
ATOM      5  C13 UNL     1     -18.561  10.268  39.081  0.00  0.00    +0.009 A 
ATOM      6  C14 UNL     1     -18.943   9.325  38.122  0.00  0.00    +0.006 A 
ENDROOT
BRANCH   4   7
ATOM      7  C15 UNL     1     -17.237  12.270  39.780  0.00  0.00    -0.007 A 
ATOM      8  C16 UNL     1     -17.881  13.525  39.751  0.00  0.00    +0.009 A 
ATOM      9  C17 UNL     1     -17.604  14.508  40.701  0.00  0.00    +0.001 A 
ATOM     10  C18 UNL     1     -16.680  14.257  41.708  0.00  0.00    +0.001 A 
ATOM     11  C19 UNL     1     -16.027  13.026  41.757  0.00  0.00    +0.012 A 
ATOM     12  C20 UNL     1     -16.284  12.028  40.795  0.00  0.00    +0.030 A 
BRANCH  12  13
ATOM     13  C21 UNL     1     -15.540  10.780  40.900  0.00  0.00    +0.205 A 
ATOM     14  N3  UNL     1     -14.330  10.548  40.361  0.00  0.00    -0.133 NA
ATOM     15  N4  UNL     1     -14.118   9.296  40.781  0.00  0.00    -0.176 N 
ATOM     16  N5  UNL     1     -15.075   8.761  41.547  0.00  0.00    -0.049 NA
ATOM     17  N6  UNL     1     -15.994   9.711  41.641  0.00  0.00    -0.108 NA
ATOM     18  H20 UNL     1     -13.277   8.779  40.540  0.00  0.00    +0.214 HD
ENDBRANCH  12  13
ENDBRANCH   4   7
BRANCH   1  19
ATOM     19  C8  UNL     1     -18.821   8.309  35.823  0.00  0.00    +0.158 C 
BRANCH  19  25
ATOM     20  C5  UNL     1     -20.957   9.332  34.916  0.00  0.00    +0.112 A 
ATOM     21  N1  UNL     1     -22.231   9.011  34.808  0.00  0.00    -0.220 NA
ATOM     22  C6  UNL     1     -22.368   7.779  35.385  0.00  0.00    +0.153 A 
ATOM     23 CL1  UNL     1     -23.873   6.992  35.480  0.00  0.00    -0.060 Cl
ATOM     24  C7  UNL     1     -21.157   7.323  35.861  0.00  0.00    +0.083 A 
ATOM     25  N2  UNL     1     -20.251   8.313  35.527  0.00  0.00    -0.324 N 
BRANCH  20  26
ATOM     26  C4  UNL     1     -20.368  10.620  34.435  0.00  0.00    +0.074 C 
BRANCH  26  27
ATOM     27  C3  UNL     1     -21.069  11.851  35.018  0.00  0.00    +0.007 C 
BRANCH  27  29
ATOM     28  C1  UNL     1     -21.444  12.068  37.536  0.00  0.00    +0.004 C 
ATOM     29  C2  UNL     1     -20.522  12.350  36.361  0.00  0.00    -0.003 C 
ENDBRANCH  27  29
ENDBRANCH  26  27
ENDBRANCH  20  26
BRANCH  24  30
ATOM     30  C22 UNL     1     -20.813   6.070  36.564  0.00  0.00    +0.212 C 
BRANCH  30  31
ATOM     31  O1  UNL     1     -21.499   6.098  37.806  0.00  0.00    -0.389 OA
ATOM     32  H23 UNL     1     -22.255   6.701  37.689  0.00  0.00    +0.210 HD
ENDBRANCH  30  31
ENDBRANCH  24  30
ENDBRANCH  19  25
ENDBRANCH   1  19
TORSDOF 9
ENDMDL
MODEL 9
REMARK VINA RESULT:    -8.378      5.543      8.342
REMARK INTER + INTRA:         -13.936
REMARK INTER:                 -11.778
REMARK INTRA:                  -2.158
REMARK UNBOUND:                -1.395
REMARK  Name = data/mahkota_dewa_dn/results/docking/ligands/pdb/Losartan.pdb
REMARK  10 active torsions:
REMARK  status: ('A' for Active; 'I' for Inactive)
REMARK    1  A    between atoms: C1_1  and  C2_2
REMARK    2  A    between atoms: C2_2  and  C3_3
REMARK    3  A    between atoms: C3_3  and  C4_4
REMARK    4  A    between atoms: C4_4  and  C5_5
REMARK    5  A    between atoms: C7_9  and  C22_29
REMARK    6  A    between atoms: N2_10  and  C8_11
REMARK    7  A    between atoms: C8_11  and  C9_12
REMARK    8  A    between atoms: C12_15  and  C15_18
REMARK    9  A    between atoms: C20_23  and  C21_24
REMARK   10  A    between atoms: C22_29  and  O1_30
REMARK                            x       y       z     vdW  Elec       q    Type
REMARK                         _______ _______ _______ _____ _____    ______ ____
ROOT
ATOM      1  C9  UNL     1     -18.557  10.442  35.834  0.00  0.00    -0.028 A 
ATOM      2  C10 UNL     1     -19.087  10.086  37.081  0.00  0.00    +0.006 A 
ATOM      3  C11 UNL     1     -18.639  10.707  38.252  0.00  0.00    +0.009 A 
ATOM      4  C12 UNL     1     -17.663  11.712  38.206  0.00  0.00    -0.017 A 
ATOM      5  C13 UNL     1     -17.144  12.079  36.956  0.00  0.00    +0.009 A 
ATOM      6  C14 UNL     1     -17.590  11.458  35.785  0.00  0.00    +0.006 A 
ENDROOT
BRANCH   4   7
ATOM      7  C15 UNL     1     -17.181  12.353  39.441  0.00  0.00    -0.007 A 
ATOM      8  C16 UNL     1     -16.180  11.694  40.185  0.00  0.00    +0.009 A 
ATOM      9  C17 UNL     1     -15.636  12.262  41.337  0.00  0.00    +0.001 A 
ATOM     10  C18 UNL     1     -16.077  13.507  41.769  0.00  0.00    +0.001 A 
ATOM     11  C19 UNL     1     -17.068  14.178  41.054  0.00  0.00    +0.012 A 
ATOM     12  C20 UNL     1     -17.638  13.610  39.897  0.00  0.00    +0.030 A 
BRANCH  12  13
ATOM     13  C21 UNL     1     -18.688  14.363  39.223  0.00  0.00    +0.205 A 
ATOM     14  N3  UNL     1     -18.496  15.251  38.232  0.00  0.00    -0.133 NA
ATOM     15  N4  UNL     1     -19.761  15.603  37.978  0.00  0.00    -0.176 N 
ATOM     16  N5  UNL     1     -20.701  14.989  38.705  0.00  0.00    -0.049 NA
ATOM     17  N6  UNL     1     -20.024  14.178  39.506  0.00  0.00    -0.108 NA
ATOM     18  H20 UNL     1     -20.000  16.292  37.271  0.00  0.00    +0.214 HD
ENDBRANCH  12  13
ENDBRANCH   4   7
BRANCH   1  19
ATOM     19  C8  UNL     1     -19.040   9.819  34.544  0.00  0.00    +0.158 C 
BRANCH  19  25
ATOM     20  C5  UNL     1     -21.573   9.761  34.636  0.00  0.00    +0.112 A 
ATOM     21  N1  UNL     1     -22.530   8.867  34.786  0.00  0.00    -0.220 NA
ATOM     22  C6  UNL     1     -21.909   7.661  34.952  0.00  0.00    +0.153 A 
ATOM     23 CL1  UNL     1     -22.783   6.223  35.202  0.00  0.00    -0.060 Cl
ATOM     24  C7  UNL     1     -20.538   7.805  34.906  0.00  0.00    +0.083 A 
ATOM     25  N2  UNL     1     -20.333   9.152  34.670  0.00  0.00    -0.324 N 
BRANCH  20  26
ATOM     26  C4  UNL     1     -21.809  11.226  34.450  0.00  0.00    +0.074 C 
BRANCH  26  27
ATOM     27  C3  UNL     1     -22.701  11.830  35.539  0.00  0.00    +0.007 C 
BRANCH  27  29
ATOM     28  C1  UNL     1     -22.616  11.652  38.087  0.00  0.00    +0.004 C 
ATOM     29  C2  UNL     1     -21.984  12.233  36.833  0.00  0.00    -0.003 C 
ENDBRANCH  27  29
ENDBRANCH  26  27
ENDBRANCH  20  26
BRANCH  24  30
ATOM     30  C22 UNL     1     -19.463   6.803  35.048  0.00  0.00    +0.212 C 
BRANCH  30  31
ATOM     31  O1  UNL     1     -19.348   6.523  36.434  0.00  0.00    -0.389 OA
ATOM     32  H23 UNL     1     -18.499   6.904  36.723  0.00  0.00    +0.210 HD
ENDBRANCH  30  31
ENDBRANCH  24  30
ENDBRANCH  19  25
ENDBRANCH   1  19
TORSDOF 9
ENDMDL
