MODEL 1
REMARK VINA RESULT:    -6.867      0.000      0.000
REMARK INTER + INTRA:          -8.403
REMARK INTER:                  -8.272
REMARK INTRA:                  -0.131
REMARK UNBOUND:                -0.131
REMARK  Name = data/mahkota_dewa_dn/results/docking/ligands/pdb/Caffeic_acid.pdb
REMARK  5 active torsions:
REMARK  status: ('A' for Active; 'I' for Inactive)
REMARK    1  A    between atoms: C3_3  and  O4_13
REMARK    2  A    between atoms: C4_4  and  O3_12
REMARK    3  A    between atoms: C6_6  and  C7_7
REMARK    4  A    between atoms: C8_8  and  C9_9
REMARK    5  A    between atoms: C9_9  and  O2_11
REMARK                            x       y       z     vdW  Elec       q    Type
REMARK                         _______ _______ _______ _____ _____    ______ ____
ROOT
ATOM      1  C1  UNL     1     -17.479  13.254  40.043  0.00  0.00    +0.012 A 
ATOM      2  C2  UNL     1     -17.499  12.368  38.960  0.00  0.00    +0.050 A 
ATOM      3  C3  UNL     1     -16.559  11.348  38.904  0.00  0.00    +0.158 A 
ATOM      4  C4  UNL     1     -15.608  11.216  39.912  0.00  0.00    +0.159 A 
ATOM      5  C5  UNL     1     -15.581  12.091  40.990  0.00  0.00    +0.057 A 
ATOM      6  C6  UNL     1     -16.532  13.117  41.074  0.00  0.00    -0.021 A 
ENDROOT
BRANCH   6   7
ATOM      7  C7  UNL     1     -16.542  14.093  42.174  0.00  0.00    +0.015 C 
ATOM      8  C8  UNL     1     -17.366  14.022  43.231  0.00  0.00    +0.092 C 
BRANCH   8   9
ATOM      9  C9  UNL     1     -17.378  15.008  44.320  0.00  0.00    +0.330 C 
ATOM     10  O1  UNL     1     -16.541  15.880  44.465  0.00  0.00    -0.246 OA
BRANCH   9  11
ATOM     11  O2  UNL     1     -18.408  14.874  45.168  0.00  0.00    -0.478 OA
ATOM     12  H6  UNL     1     -18.033  15.146  46.030  0.00  0.00    +0.295 HD
ENDBRANCH   9  11
ENDBRANCH   8   9
ENDBRANCH   6   7
BRANCH   4  13
ATOM     13  O3  UNL     1     -14.680  10.216  39.844  0.00  0.00    -0.503 OA
ATOM     14  H7  UNL     1     -15.188   9.429  39.564  0.00  0.00    +0.292 HD
ENDBRANCH   4  13
BRANCH   3  15
ATOM     15  O4  UNL     1     -16.525  10.451  37.873  0.00  0.00    -0.503 OA
ATOM     16  H8  UNL     1     -16.815  10.906  37.065  0.00  0.00    +0.292 HD
ENDBRANCH   3  15
TORSDOF 5
ENDMDL
MODEL 2
REMARK VINA RESULT:    -6.535      0.819      1.880
REMARK INTER + INTRA:          -8.003
REMARK INTER:                  -7.875
REMARK INTRA:                  -0.128
REMARK UNBOUND:                -0.131
REMARK  Name = data/mahkota_dewa_dn/results/docking/ligands/pdb/Caffeic_acid.pdb
REMARK  5 active torsions:
REMARK  status: ('A' for Active; 'I' for Inactive)
REMARK    1  A    between atoms: C3_3  and  O4_13
REMARK    2  A    between atoms: C4_4  and  O3_12
REMARK    3  A    between atoms: C6_6  and  C7_7
REMARK    4  A    between atoms: C8_8  and  C9_9
REMARK    5  A    between atoms: C9_9  and  O2_11
REMARK                            x       y       z     vdW  Elec       q    Type
REMARK                         _______ _______ _______ _____ _____    ______ ____
ROOT
ATOM      1  C1  UNL     1     -15.512  11.885  40.929  0.00  0.00    +0.012 A 
ATOM      2  C2  UNL     1     -15.559  11.027  39.825  0.00  0.00    +0.050 A 
ATOM      3  C3  UNL     1     -16.523  11.237  38.848  0.00  0.00    +0.158 A 
ATOM      4  C4  UNL     1     -17.431  12.284  38.973  0.00  0.00    +0.159 A 
ATOM      5  C5  UNL     1     -17.391  13.140  40.065  0.00  0.00    +0.057 A 
ATOM      6  C6  UNL     1     -16.416  12.956  41.055  0.00  0.00    -0.021 A 
ENDROOT
BRANCH   6   7
ATOM      7  C7  UNL     1     -16.336  13.809  42.250  0.00  0.00    +0.015 C 
ATOM      8  C8  UNL     1     -17.397  14.155  42.995  0.00  0.00    +0.092 C 
BRANCH   8   9
ATOM      9  C9  UNL     1     -17.311  15.017  44.181  0.00  0.00    +0.330 C 
ATOM     10  O1  UNL     1     -16.433  15.840  44.369  0.00  0.00    -0.246 OA
BRANCH   9  11
ATOM     11  O2  UNL     1     -18.298  14.828  45.068  0.00  0.00    -0.478 OA
ATOM     12  H6  UNL     1     -18.772  14.044  44.722  0.00  0.00    +0.295 HD
ENDBRANCH   9  11
ENDBRANCH   8   9
ENDBRANCH   6   7
BRANCH   4  13
ATOM     13  O3  UNL     1     -18.383  12.476  38.012  0.00  0.00    -0.503 OA
ATOM     14  H7  UNL     1     -17.879  12.738  37.216  0.00  0.00    +0.292 HD
ENDBRANCH   4  13
BRANCH   3  15
ATOM     15  O4  UNL     1     -16.623  10.434  37.746  0.00  0.00    -0.503 OA
ATOM     16  H8  UNL     1     -16.537  10.993  36.955  0.00  0.00    +0.292 HD
ENDBRANCH   3  15
TORSDOF 5
ENDMDL
MODEL 3
REMARK VINA RESULT:    -6.396      2.845      3.785
REMARK INTER + INTRA:          -7.836
REMARK INTER:                  -7.704
REMARK INTRA:                  -0.131
REMARK UNBOUND:                -0.131
REMARK  Name = data/mahkota_dewa_dn/results/docking/ligands/pdb/Caffeic_acid.pdb
REMARK  5 active torsions:
REMARK  status: ('A' for Active; 'I' for Inactive)
REMARK    1  A    between atoms: C3_3  and  O4_13
REMARK    2  A    between atoms: C4_4  and  O3_12
REMARK    3  A    between atoms: C6_6  and  C7_7
REMARK    4  A    between atoms: C8_8  and  C9_9
REMARK    5  A    between atoms: C9_9  and  O2_11
REMARK                            x       y       z     vdW  Elec       q    Type
REMARK                         _______ _______ _______ _____ _____    ______ ____
ROOT
ATOM      1  C1  UNL     1     -16.586  13.231  41.093  0.00  0.00    +0.012 A 
ATOM      2  C2  UNL     1     -15.600  12.239  41.068  0.00  0.00    +0.050 A 
ATOM      3  C3  UNL     1     -15.604  11.310  40.036  0.00  0.00    +0.158 A 
ATOM      4  C4  UNL     1     -16.580  11.366  39.046  0.00  0.00    +0.159 A 
ATOM      5  C5  UNL     1     -17.562  12.348  39.064  0.00  0.00    +0.057 A 
ATOM      6  C6  UNL     1     -17.567  13.305  40.087  0.00  0.00    -0.021 A 
ENDROOT
BRANCH   6   7
ATOM      7  C7  UNL     1     -18.594  14.353  40.181  0.00  0.00    +0.015 C 
ATOM      8  C8  UNL     1     -19.674  14.415  39.387  0.00  0.00    +0.092 C 
BRANCH   8   9
ATOM      9  C9  UNL     1     -20.691  15.472  39.478  0.00  0.00    +0.330 C 
ATOM     10  O1  UNL     1     -21.246  15.975  38.518  0.00  0.00    -0.246 OA
BRANCH   9  11
ATOM     11  O2  UNL     1     -20.971  15.856  40.732  0.00  0.00    -0.478 OA
ATOM     12  H6  UNL     1     -20.980  15.014  41.233  0.00  0.00    +0.295 HD
ENDBRANCH   9  11
ENDBRANCH   8   9
ENDBRANCH   6   7
BRANCH   4  13
ATOM     13  O3  UNL     1     -16.582  10.442  38.040  0.00  0.00    -0.503 OA
ATOM     14  H7  UNL     1     -17.198   9.747  38.347  0.00  0.00    +0.292 HD
ENDBRANCH   4  13
BRANCH   3  15
ATOM     15  O4  UNL     1     -14.669  10.316  39.954  0.00  0.00    -0.503 OA
ATOM     16  H8  UNL     1     -14.295  10.176  40.841  0.00  0.00    +0.292 HD
ENDBRANCH   3  15
TORSDOF 5
ENDMDL
MODEL 4
REMARK VINA RESULT:    -6.179      2.134      5.179
REMARK INTER + INTRA:          -7.575
REMARK INTER:                  -7.441
REMARK INTRA:                  -0.134
REMARK UNBOUND:                -0.131
REMARK  Name = data/mahkota_dewa_dn/results/docking/ligands/pdb/Caffeic_acid.pdb
REMARK  5 active torsions:
REMARK  status: ('A' for Active; 'I' for Inactive)
REMARK    1  A    between atoms: C3_3  and  O4_13
REMARK    2  A    between atoms: C4_4  and  O3_12
REMARK    3  A    between atoms: C6_6  and  C7_7
REMARK    4  A    between atoms: C8_8  and  C9_9
REMARK    5  A    between atoms: C9_9  and  O2_11
REMARK                            x       y       z     vdW  Elec       q    Type
REMARK                         _______ _______ _______ _____ _____    ______ ____
ROOT
ATOM      1  C1  UNL     1     -16.913  12.472  39.601  0.00  0.00    +0.012 A 
ATOM      2  C2  UNL     1     -17.762  13.575  39.458  0.00  0.00    +0.050 A 
ATOM      3  C3  UNL     1     -17.779  14.547  40.449  0.00  0.00    +0.158 A 
ATOM      4  C4  UNL     1     -16.965  14.419  41.570  0.00  0.00    +0.159 A 
ATOM      5  C5  UNL     1     -16.120  13.327  41.721  0.00  0.00    +0.057 A 
ATOM      6  C6  UNL     1     -16.075  12.342  40.724  0.00  0.00    -0.021 A 
ENDROOT
BRANCH   6   7
ATOM      7  C7  UNL     1     -15.225  11.148  40.834  0.00  0.00    +0.015 C 
ATOM      8  C8  UNL     1     -15.607  10.009  41.433  0.00  0.00    +0.092 C 
BRANCH   8   9
ATOM      9  C9  UNL     1     -14.748   8.824  41.549  0.00  0.00    +0.330 C 
ATOM     10  O1  UNL     1     -14.956   7.897  42.312  0.00  0.00    -0.246 OA
BRANCH   9  11
ATOM     11  O2  UNL     1     -13.685   8.836  40.732  0.00  0.00    -0.478 OA
ATOM     12  H6  UNL     1     -13.920   9.506  40.058  0.00  0.00    +0.295 HD
ENDBRANCH   9  11
ENDBRANCH   8   9
ENDBRANCH   6   7
BRANCH   4  13
ATOM     13  O3  UNL     1     -16.995  15.374  42.546  0.00  0.00    -0.503 OA
ATOM     14  H7  UNL     1     -16.482  14.989  43.283  0.00  0.00    +0.292 HD
ENDBRANCH   4  13
BRANCH   3  15
ATOM     15  O4  UNL     1     -18.585  15.649  40.369  0.00  0.00    -0.503 OA
ATOM     16  H8  UNL     1     -19.314  15.537  41.002  0.00  0.00    +0.292 HD
ENDBRANCH   3  15
TORSDOF 5
ENDMDL
MODEL 5
REMARK VINA RESULT:    -6.108      2.750      5.289
REMARK INTER + INTRA:          -7.489
REMARK INTER:                  -7.336
REMARK INTRA:                  -0.153
REMARK UNBOUND:                -0.131
REMARK  Name = data/mahkota_dewa_dn/results/docking/ligands/pdb/Caffeic_acid.pdb
REMARK  5 active torsions:
REMARK  status: ('A' for Active; 'I' for Inactive)
REMARK    1  A    between atoms: C3_3  and  O4_13
REMARK    2  A    between atoms: C4_4  and  O3_12
REMARK    3  A    between atoms: C6_6  and  C7_7
REMARK    4  A    between atoms: C8_8  and  C9_9
REMARK    5  A    between atoms: C9_9  and  O2_11
REMARK                            x       y       z     vdW  Elec       q    Type
REMARK                         _______ _______ _______ _____ _____    ______ ____
ROOT
ATOM      1  C1  UNL     1     -17.069  13.778  40.896  0.00  0.00    +0.012 A 
ATOM      2  C2  UNL     1     -17.777  14.985  40.918  0.00  0.00    +0.050 A 
ATOM      3  C3  UNL     1     -18.488  15.371  39.790  0.00  0.00    +0.158 A 
ATOM      4  C4  UNL     1     -18.489  14.568  38.653  0.00  0.00    +0.159 A 
ATOM      5  C5  UNL     1     -17.790  13.368  38.624  0.00  0.00    +0.057 A 
ATOM      6  C6  UNL     1     -17.079  12.952  39.757  0.00  0.00    -0.021 A 
ENDROOT
BRANCH   6   7
ATOM      7  C7  UNL     1     -16.296  11.708  39.783  0.00  0.00    +0.015 C 
ATOM      8  C8  UNL     1     -15.494  11.349  40.798  0.00  0.00    +0.092 C 
BRANCH   8   9
ATOM      9  C9  UNL     1     -14.705  10.110  40.811  0.00  0.00    +0.330 C 
ATOM     10  O1  UNL     1     -14.811   9.238  41.655  0.00  0.00    -0.246 OA
BRANCH   9  11
ATOM     11  O2  UNL     1     -13.833  10.005  39.798  0.00  0.00    -0.478 OA
ATOM     12  H6  UNL     1     -13.713  10.930  39.501  0.00  0.00    +0.295 HD
ENDBRANCH   9  11
ENDBRANCH   8   9
ENDBRANCH   6   7
BRANCH   4  13
ATOM     13  O3  UNL     1     -19.183  14.960  37.544  0.00  0.00    -0.503 OA
ATOM     14  H7  UNL     1     -18.717  14.531  36.799  0.00  0.00    +0.292 HD
ENDBRANCH   4  13
BRANCH   3  15
ATOM     15  O4  UNL     1     -19.198  16.538  39.746  0.00  0.00    -0.503 OA
ATOM     16  H8  UNL     1     -18.629  17.253  40.079  0.00  0.00    +0.292 HD
ENDBRANCH   3  15
TORSDOF 5
ENDMDL
MODEL 6
REMARK VINA RESULT:    -6.042      2.119      6.361
REMARK INTER + INTRA:          -7.409
REMARK INTER:                  -7.277
REMARK INTRA:                  -0.132
REMARK UNBOUND:                -0.131
REMARK  Name = data/mahkota_dewa_dn/results/docking/ligands/pdb/Caffeic_acid.pdb
REMARK  5 active torsions:
REMARK  status: ('A' for Active; 'I' for Inactive)
REMARK    1  A    between atoms: C3_3  and  O4_13
REMARK    2  A    between atoms: C4_4  and  O3_12
REMARK    3  A    between atoms: C6_6  and  C7_7
REMARK    4  A    between atoms: C8_8  and  C9_9
REMARK    5  A    between atoms: C9_9  and  O2_11
REMARK                            x       y       z     vdW  Elec       q    Type
REMARK                         _______ _______ _______ _____ _____    ______ ____
ROOT
ATOM      1  C1  UNL     1     -16.273  12.343  40.537  0.00  0.00    +0.012 A 
ATOM      2  C2  UNL     1     -16.203  13.254  41.597  0.00  0.00    +0.050 A 
ATOM      3  C3  UNL     1     -16.996  14.393  41.562  0.00  0.00    +0.158 A 
ATOM      4  C4  UNL     1     -17.844  14.623  40.482  0.00  0.00    +0.159 A 
ATOM      5  C5  UNL     1     -17.918  13.724  39.426  0.00  0.00    +0.057 A 
ATOM      6  C6  UNL     1     -17.138  12.560  39.450  0.00  0.00    -0.021 A 
ENDROOT
BRANCH   6   7
ATOM      7  C7  UNL     1     -17.149  11.582  38.352  0.00  0.00    +0.015 C 
ATOM      8  C8  UNL     1     -17.500  11.877  37.090  0.00  0.00    +0.092 C 
BRANCH   8   9
ATOM      9  C9  UNL     1     -17.520  10.892  36.001  0.00  0.00    +0.330 C 
ATOM     10  O1  UNL     1     -18.151  11.024  34.968  0.00  0.00    -0.246 OA
BRANCH   9  11
ATOM     11  O2  UNL     1     -16.771   9.804  36.233  0.00  0.00    -0.478 OA
ATOM     12  H6  UNL     1     -17.426   9.078  36.276  0.00  0.00    +0.295 HD
ENDBRANCH   9  11
ENDBRANCH   8   9
ENDBRANCH   6   7
BRANCH   4  13
ATOM     13  O3  UNL     1     -18.613  15.751  40.450  0.00  0.00    -0.503 OA
ATOM     14  H7  UNL     1     -17.976  16.479  40.307  0.00  0.00    +0.292 HD
ENDBRANCH   4  13
BRANCH   3  15
ATOM     15  O4  UNL     1     -16.975  15.321  42.565  0.00  0.00    -0.503 OA
ATOM     16  H8  UNL     1     -17.600  16.030  42.335  0.00  0.00    +0.292 HD
ENDBRANCH   3  15
TORSDOF 5
ENDMDL
MODEL 7
REMARK VINA RESULT:    -5.741      2.606      6.692
REMARK INTER + INTRA:          -7.047
REMARK INTER:                  -6.897
REMARK INTRA:                  -0.150
REMARK UNBOUND:                -0.131
REMARK  Name = data/mahkota_dewa_dn/results/docking/ligands/pdb/Caffeic_acid.pdb
REMARK  5 active torsions:
REMARK  status: ('A' for Active; 'I' for Inactive)
REMARK    1  A    between atoms: C3_3  and  O4_13
REMARK    2  A    between atoms: C4_4  and  O3_12
REMARK    3  A    between atoms: C6_6  and  C7_7
REMARK    4  A    between atoms: C8_8  and  C9_9
REMARK    5  A    between atoms: C9_9  and  O2_11
REMARK                            x       y       z     vdW  Elec       q    Type
REMARK                         _______ _______ _______ _____ _____    ______ ____
ROOT
ATOM      1  C1  UNL     1     -17.232  12.381  39.519  0.00  0.00    +0.012 A 
ATOM      2  C2  UNL     1     -17.115  13.140  40.688  0.00  0.00    +0.050 A 
ATOM      3  C3  UNL     1     -17.473  14.481  40.661  0.00  0.00    +0.158 A 
ATOM      4  C4  UNL     1     -17.937  15.059  39.483  0.00  0.00    +0.159 A 
ATOM      5  C5  UNL     1     -18.055  14.312  38.318  0.00  0.00    +0.057 A 
ATOM      6  C6  UNL     1     -17.715  12.952  38.328  0.00  0.00    -0.021 A 
ENDROOT
BRANCH   6   7
ATOM      7  C7  UNL     1     -17.791  12.112  37.124  0.00  0.00    +0.015 C 
ATOM      8  C8  UNL     1     -17.781  10.770  37.145  0.00  0.00    +0.092 C 
BRANCH   8   9
ATOM      9  C9  UNL     1     -17.845   9.937  35.937  0.00  0.00    +0.330 C 
ATOM     10  O1  UNL     1     -18.751   9.976  35.124  0.00  0.00    -0.246 OA
BRANCH   9  11
ATOM     11  O2  UNL     1     -16.803   9.107  35.788  0.00  0.00    -0.478 OA
ATOM     12  H6  UNL     1     -17.199   8.218  35.899  0.00  0.00    +0.295 HD
ENDBRANCH   9  11
ENDBRANCH   8   9
ENDBRANCH   6   7
BRANCH   4  13
ATOM     13  O3  UNL     1     -18.277  16.381  39.462  0.00  0.00    -0.503 OA
ATOM     14  H7  UNL     1     -18.005  16.691  38.575  0.00  0.00    +0.292 HD
ENDBRANCH   4  13
BRANCH   3  15
ATOM     15  O4  UNL     1     -17.382  15.278  41.769  0.00  0.00    -0.503 OA
ATOM     16  H8  UNL     1     -17.841  16.114  41.579  0.00  0.00    +0.292 HD
ENDBRANCH   3  15
TORSDOF 5
ENDMDL
MODEL 8
REMARK VINA RESULT:    -5.624      5.130      7.556
REMARK INTER + INTRA:          -6.906
REMARK INTER:                  -6.778
REMARK INTRA:                  -0.129
REMARK UNBOUND:                -0.131
REMARK  Name = data/mahkota_dewa_dn/results/docking/ligands/pdb/Caffeic_acid.pdb
REMARK  5 active torsions:
REMARK  status: ('A' for Active; 'I' for Inactive)
REMARK    1  A    between atoms: C3_3  and  O4_13
REMARK    2  A    between atoms: C4_4  and  O3_12
REMARK    3  A    between atoms: C6_6  and  C7_7
REMARK    4  A    between atoms: C8_8  and  C9_9
REMARK    5  A    between atoms: C9_9  and  O2_11
REMARK                            x       y       z     vdW  Elec       q    Type
REMARK                         _______ _______ _______ _____ _____    ______ ____
ROOT
ATOM      1  C1  UNL     1     -19.169  13.303  37.526  0.00  0.00    +0.012 A 
ATOM      2  C2  UNL     1     -18.209  14.189  38.026  0.00  0.00    +0.050 A 
ATOM      3  C3  UNL     1     -18.621  15.265  38.800  0.00  0.00    +0.158 A 
ATOM      4  C4  UNL     1     -19.973  15.458  39.067  0.00  0.00    +0.159 A 
ATOM      5  C5  UNL     1     -20.933  14.583  38.574  0.00  0.00    +0.057 A 
ATOM      6  C6  UNL     1     -20.536  13.481  37.805  0.00  0.00    -0.021 A 
ENDROOT
BRANCH   6   7
ATOM      7  C7  UNL     1     -21.502  12.533  37.230  0.00  0.00    +0.015 C 
ATOM      8  C8  UNL     1     -22.833  12.652  37.356  0.00  0.00    +0.092 C 
BRANCH   8   9
ATOM      9  C9  UNL     1     -23.792  11.694  36.788  0.00  0.00    +0.330 C 
ATOM     10  O1  UNL     1     -23.846  10.516  37.092  0.00  0.00    -0.246 OA
BRANCH   9  11
ATOM     11  O2  UNL     1     -24.628  12.226  35.885  0.00  0.00    -0.478 OA
ATOM     12  H6  UNL     1     -24.032  12.707  35.275  0.00  0.00    +0.295 HD
ENDBRANCH   9  11
ENDBRANCH   8   9
ENDBRANCH   6   7
BRANCH   4  13
ATOM     13  O3  UNL     1     -20.372  16.526  39.821  0.00  0.00    -0.503 OA
ATOM     14  H7  UNL     1     -20.881  17.086  39.202  0.00  0.00    +0.292 HD
ENDBRANCH   4  13
BRANCH   3  15
ATOM     15  O4  UNL     1     -17.734  16.167  39.318  0.00  0.00    -0.503 OA
ATOM     16  H8  UNL     1     -17.179  15.707  39.970  0.00  0.00    +0.292 HD
ENDBRANCH   3  15
TORSDOF 5
ENDMDL
MODEL 9
REMARK VINA RESULT:    -5.447      2.302      6.227
REMARK INTER + INTRA:          -6.693
REMARK INTER:                  -6.564
REMARK INTRA:                  -0.130
REMARK UNBOUND:                -0.131
REMARK  Name = data/mahkota_dewa_dn/results/docking/ligands/pdb/Caffeic_acid.pdb
REMARK  5 active torsions:
REMARK  status: ('A' for Active; 'I' for Inactive)
REMARK    1  A    between atoms: C3_3  and  O4_13
REMARK    2  A    between atoms: C4_4  and  O3_12
REMARK    3  A    between atoms: C6_6  and  C7_7
REMARK    4  A    between atoms: C8_8  and  C9_9
REMARK    5  A    between atoms: C9_9  and  O2_11
REMARK                            x       y       z     vdW  Elec       q    Type
REMARK                         _______ _______ _______ _____ _____    ______ ____
ROOT
ATOM      1  C1  UNL     1     -18.216  14.618  38.921  0.00  0.00    +0.012 A 
ATOM      2  C2  UNL     1     -18.079  15.266  40.154  0.00  0.00    +0.050 A 
ATOM      3  C3  UNL     1     -17.412  14.620  41.186  0.00  0.00    +0.158 A 
ATOM      4  C4  UNL     1     -16.892  13.343  40.993  0.00  0.00    +0.159 A 
ATOM      5  C5  UNL     1     -17.024  12.693  39.773  0.00  0.00    +0.057 A 
ATOM      6  C6  UNL     1     -17.680  13.334  38.713  0.00  0.00    -0.021 A 
ENDROOT
BRANCH   6   7
ATOM      7  C7  UNL     1     -17.878  12.691  37.406  0.00  0.00    +0.015 C 
ATOM      8  C8  UNL     1     -17.812  11.365  37.205  0.00  0.00    +0.092 C 
BRANCH   8   9
ATOM      9  C9  UNL     1     -17.999  10.731  35.893  0.00  0.00    +0.330 C 
ATOM     10  O1  UNL     1     -18.821   9.863  35.662  0.00  0.00    -0.246 OA
BRANCH   9  11
ATOM     11  O2  UNL     1     -17.176  11.191  34.941  0.00  0.00    -0.478 OA
ATOM     12  H6  UNL     1     -16.317  11.282  35.403  0.00  0.00    +0.295 HD
ENDBRANCH   9  11
ENDBRANCH   8   9
ENDBRANCH   6   7
BRANCH   4  13
ATOM     13  O3  UNL     1     -16.246  12.710  42.017  0.00  0.00    -0.503 OA
ATOM     14  H7  UNL     1     -16.797  11.925  42.206  0.00  0.00    +0.292 HD
ENDBRANCH   4  13
BRANCH   3  15
ATOM     15  O4  UNL     1     -17.244  15.198  42.413  0.00  0.00    -0.503 OA
ATOM     16  H8  UNL     1     -16.349  15.575  42.451  0.00  0.00    +0.292 HD
ENDBRANCH   3  15
TORSDOF 5
ENDMDL
