MODEL 1
REMARK VINA RESULT:    -7.922      0.000      0.000
REMARK INTER + INTRA:          -9.567
REMARK INTER:                  -9.543
REMARK INTRA:                  -0.024
REMARK UNBOUND:                -0.024
REMARK  Name = data/mahkota_dewa_dn/results/docking/ligands/pdb/Quercetin.pdb
REMARK  6 active torsions:
REMARK  status: ('A' for Active; 'I' for Inactive)
REMARK    1  A    between atoms: C3_3  and  O7_22
REMARK    2  A    between atoms: C4_4  and  O6_21
REMARK    3  A    between atoms: C6_6  and  C7_7
REMARK    4  A    between atoms: C8_8  and  O5_20
REMARK    5  A    between atoms: C11_12  and  O4_19
REMARK    6  A    between atoms: C13_14  and  O3_18
REMARK                            x       y       z     vdW  Elec       q    Type
REMARK                         _______ _______ _______ _____ _____    ______ ____
ROOT
ATOM      1  C7  UNL     1     -19.987  12.646  37.727  0.00  0.00    +0.181 A 
ATOM      2  C8  UNL     1     -20.127  13.727  38.516  0.00  0.00    +0.208 A 
ATOM      3  C9  UNL     1     -19.093  13.992  39.542  0.00  0.00    +0.238 A 
ATOM      4  O1  UNL     1     -19.186  14.968  40.285  0.00  0.00    -0.283 OA
ATOM      5  C10 UNL     1     -17.972  13.056  39.632  0.00  0.00    +0.109 A 
ATOM      6  C11 UNL     1     -16.944  13.225  40.564  0.00  0.00    +0.135 A 
ATOM      7  C12 UNL     1     -15.892  12.314  40.622  0.00  0.00    +0.091 A 
ATOM      8  C13 UNL     1     -15.881  11.236  39.741  0.00  0.00    +0.124 A 
ATOM      9  C14 UNL     1     -16.900  11.058  38.809  0.00  0.00    +0.092 A 
ATOM     10  C15 UNL     1     -17.950  11.975  38.756  0.00  0.00    +0.147 A 
ATOM     11  O2  UNL     1     -18.927  11.751  37.820  0.00  0.00    -0.451 OA
ENDROOT
BRANCH   1  17
ATOM     12  C1  UNL     1     -20.557  11.924  35.380  0.00  0.00    +0.015 A 
ATOM     13  C2  UNL     1     -21.489  11.553  34.404  0.00  0.00    +0.050 A 
ATOM     14  C3  UNL     1     -22.836  11.524  34.734  0.00  0.00    +0.158 A 
ATOM     15  C4  UNL     1     -23.251  11.856  36.020  0.00  0.00    +0.159 A 
ATOM     16  C5  UNL     1     -22.331  12.227  36.993  0.00  0.00    +0.060 A 
ATOM     17  C6  UNL     1     -20.963  12.274  36.681  0.00  0.00    +0.025 A 
BRANCH  15  18
ATOM     18  O6  UNL     1     -24.578  11.821  36.338  0.00  0.00    -0.503 OA
ATOM     19  H9  UNL     1     -24.660  12.417  37.110  0.00  0.00    +0.292 HD
ENDBRANCH  15  18
BRANCH  14  20
ATOM     20  O7  UNL     1     -23.797  11.171  33.827  0.00  0.00    -0.503 OA
ATOM     21  H10 UNL     1     -23.561  10.302  33.461  0.00  0.00    +0.292 HD
ENDBRANCH  14  20
ENDBRANCH   1  17
BRANCH   8  22
ATOM     22  O3  UNL     1     -14.873  10.317  39.758  0.00  0.00    -0.507 OA
ATOM     23  H6  UNL     1     -14.337  10.452  40.558  0.00  0.00    +0.292 HD
ENDBRANCH   8  22
BRANCH   6  24
ATOM     24  O4  UNL     1     -16.906  14.265  41.453  0.00  0.00    -0.506 OA
ATOM     25  H7  UNL     1     -16.137  14.836  41.233  0.00  0.00    +0.292 HD
ENDBRANCH   6  24
BRANCH   2  26
ATOM     26  O5  UNL     1     -21.190  14.610  38.451  0.00  0.00    -0.501 OA
ATOM     27  H8  UNL     1     -21.849  14.180  37.867  0.00  0.00    +0.292 HD
ENDBRANCH   2  26
TORSDOF 6
ENDMDL
MODEL 2
REMARK VINA RESULT:    -7.837      1.625      3.174
REMARK INTER + INTRA:          -9.465
REMARK INTER:                  -9.133
REMARK INTRA:                  -0.332
REMARK UNBOUND:                -0.024
REMARK  Name = data/mahkota_dewa_dn/results/docking/ligands/pdb/Quercetin.pdb
REMARK  6 active torsions:
REMARK  status: ('A' for Active; 'I' for Inactive)
REMARK    1  A    between atoms: C3_3  and  O7_22
REMARK    2  A    between atoms: C4_4  and  O6_21
REMARK    3  A    between atoms: C6_6  and  C7_7
REMARK    4  A    between atoms: C8_8  and  O5_20
REMARK    5  A    between atoms: C11_12  and  O4_19
REMARK    6  A    between atoms: C13_14  and  O3_18
REMARK                            x       y       z     vdW  Elec       q    Type
REMARK                         _______ _______ _______ _____ _____    ______ ____
ROOT
ATOM      1  C7  UNL     1     -20.484  11.897  36.493  0.00  0.00    +0.181 A 
ATOM      2  C8  UNL     1     -19.709  10.901  36.958  0.00  0.00    +0.208 A 
ATOM      3  C9  UNL     1     -18.671  11.224  37.963  0.00  0.00    +0.238 A 
ATOM      4  O1  UNL     1     -17.940  10.343  38.412  0.00  0.00    -0.283 OA
ATOM      5  C10 UNL     1     -18.554  12.618  38.393  0.00  0.00    +0.109 A 
ATOM      6  C11 UNL     1     -17.608  13.019  39.341  0.00  0.00    +0.135 A 
ATOM      7  C12 UNL     1     -17.525  14.355  39.727  0.00  0.00    +0.091 A 
ATOM      8  C13 UNL     1     -18.394  15.281  39.156  0.00  0.00    +0.124 A 
ATOM      9  C14 UNL     1     -19.339  14.891  38.210  0.00  0.00    +0.092 A 
ATOM     10  C15 UNL     1     -19.418  13.552  37.829  0.00  0.00    +0.147 A 
ATOM     11  O2  UNL     1     -20.365  13.223  36.894  0.00  0.00    -0.451 OA
ENDROOT
BRANCH   1  17
ATOM     12  C1  UNL     1     -21.261  11.745  34.100  0.00  0.00    +0.015 A 
ATOM     13  C2  UNL     1     -22.266  11.533  33.149  0.00  0.00    +0.050 A 
ATOM     14  C3  UNL     1     -23.557  11.263  33.580  0.00  0.00    +0.158 A 
ATOM     15  C4  UNL     1     -23.844  11.201  34.939  0.00  0.00    +0.159 A 
ATOM     16  C5  UNL     1     -22.853  11.412  35.889  0.00  0.00    +0.060 A 
ATOM     17  C6  UNL     1     -21.540  11.697  35.478  0.00  0.00    +0.025 A 
BRANCH  15  18
ATOM     18  O6  UNL     1     -25.117  10.931  35.355  0.00  0.00    -0.503 OA
ATOM     19  H9  UNL     1     -25.023  10.149  35.936  0.00  0.00    +0.292 HD
ENDBRANCH  15  18
BRANCH  14  20
ATOM     20  O7  UNL     1     -24.583  11.047  32.702  0.00  0.00    -0.503 OA
ATOM     21  H10 UNL     1     -24.200  10.900  31.820  0.00  0.00    +0.292 HD
ENDBRANCH  14  20
ENDBRANCH   1  17
BRANCH   8  22
ATOM     22  O3  UNL     1     -18.352  16.599  39.500  0.00  0.00    -0.507 OA
ATOM     23  H6  UNL     1     -17.594  17.017  39.058  0.00  0.00    +0.292 HD
ENDBRANCH   8  22
BRANCH   6  24
ATOM     24  O4  UNL     1     -16.730  12.153  39.933  0.00  0.00    -0.506 OA
ATOM     25  H7  UNL     1     -16.432  12.544  40.785  0.00  0.00    +0.292 HD
ENDBRANCH   6  24
BRANCH   2  26
ATOM     26  O5  UNL     1     -19.799   9.583  36.548  0.00  0.00    -0.501 OA
ATOM     27  H8  UNL     1     -19.285   9.071  37.206  0.00  0.00    +0.292 HD
ENDBRANCH   2  26
TORSDOF 6
ENDMDL
MODEL 3
REMARK VINA RESULT:    -7.705      1.597      7.329
REMARK INTER + INTRA:          -9.306
REMARK INTER:                  -9.282
REMARK INTRA:                  -0.024
REMARK UNBOUND:                -0.024
REMARK  Name = data/mahkota_dewa_dn/results/docking/ligands/pdb/Quercetin.pdb
REMARK  6 active torsions:
REMARK  status: ('A' for Active; 'I' for Inactive)
REMARK    1  A    between atoms: C3_3  and  O7_22
REMARK    2  A    between atoms: C4_4  and  O6_21
REMARK    3  A    between atoms: C6_6  and  C7_7
REMARK    4  A    between atoms: C8_8  and  O5_20
REMARK    5  A    between atoms: C11_12  and  O4_19
REMARK    6  A    between atoms: C13_14  and  O3_18
REMARK                            x       y       z     vdW  Elec       q    Type
REMARK                         _______ _______ _______ _____ _____    ______ ____
ROOT
ATOM      1  C7  UNL     1     -18.862  11.879  36.912  0.00  0.00    +0.181 A 
ATOM      2  C8  UNL     1     -18.436  11.533  35.682  0.00  0.00    +0.208 A 
ATOM      3  C9  UNL     1     -19.442  11.357  34.611  0.00  0.00    +0.238 A 
ATOM      4  O1  UNL     1     -19.094  11.038  33.474  0.00  0.00    -0.283 OA
ATOM      5  C10 UNL     1     -20.847  11.575  34.956  0.00  0.00    +0.109 A 
ATOM      6  C11 UNL     1     -21.868  11.439  34.010  0.00  0.00    +0.135 A 
ATOM      7  C12 UNL     1     -23.195  11.654  34.374  0.00  0.00    +0.091 A 
ATOM      8  C13 UNL     1     -23.488  12.006  35.689  0.00  0.00    +0.124 A 
ATOM      9  C14 UNL     1     -22.478  12.144  36.639  0.00  0.00    +0.092 A 
ATOM     10  C15 UNL     1     -21.151  11.928  36.267  0.00  0.00    +0.147 A 
ATOM     11  O2  UNL     1     -20.198  12.076  37.241  0.00  0.00    -0.451 OA
ENDROOT
BRANCH   1  17
ATOM     12  C1  UNL     1     -18.044  13.192  38.902  0.00  0.00    +0.015 A 
ATOM     13  C2  UNL     1     -17.191  13.349  40.000  0.00  0.00    +0.050 A 
ATOM     14  C3  UNL     1     -16.244  12.369  40.264  0.00  0.00    +0.158 A 
ATOM     15  C4  UNL     1     -16.150  11.246  39.448  0.00  0.00    +0.159 A 
ATOM     16  C5  UNL     1     -16.993  11.085  38.356  0.00  0.00    +0.060 A 
ATOM     17  C6  UNL     1     -17.952  12.067  38.062  0.00  0.00    +0.025 A 
BRANCH  15  18
ATOM     18  O6  UNL     1     -15.219  10.284  39.717  0.00  0.00    -0.503 OA
ATOM     19  H9  UNL     1     -15.604   9.772  40.457  0.00  0.00    +0.292 HD
ENDBRANCH  15  18
BRANCH  14  20
ATOM     20  O7  UNL     1     -15.380  12.462  41.320  0.00  0.00    -0.503 OA
ATOM     21  H10 UNL     1     -15.097  11.562  41.558  0.00  0.00    +0.292 HD
ENDBRANCH  14  20
ENDBRANCH   1  17
BRANCH   8  22
ATOM     22  O3  UNL     1     -24.770  12.227  36.095  0.00  0.00    -0.507 OA
ATOM     23  H6  UNL     1     -24.938  13.185  36.101  0.00  0.00    +0.292 HD
ENDBRANCH   8  22
BRANCH   6  24
ATOM     24  O4  UNL     1     -21.636  11.094  32.706  0.00  0.00    -0.506 OA
ATOM     25  H7  UNL     1     -22.160  11.692  32.128  0.00  0.00    +0.292 HD
ENDBRANCH   6  24
BRANCH   2  26
ATOM     26  O5  UNL     1     -17.113  11.308  35.348  0.00  0.00    -0.501 OA
ATOM     27  H8  UNL     1     -16.925  11.923  34.609  0.00  0.00    +0.292 HD
ENDBRANCH   2  26
TORSDOF 6
ENDMDL
MODEL 4
REMARK VINA RESULT:    -7.613      1.846      7.125
REMARK INTER + INTRA:          -9.195
REMARK INTER:                  -8.868
REMARK INTRA:                  -0.327
REMARK UNBOUND:                -0.024
REMARK  Name = data/mahkota_dewa_dn/results/docking/ligands/pdb/Quercetin.pdb
REMARK  6 active torsions:
REMARK  status: ('A' for Active; 'I' for Inactive)
REMARK    1  A    between atoms: C3_3  and  O7_22
REMARK    2  A    between atoms: C4_4  and  O6_21
REMARK    3  A    between atoms: C6_6  and  C7_7
REMARK    4  A    between atoms: C8_8  and  O5_20
REMARK    5  A    between atoms: C11_12  and  O4_19
REMARK    6  A    between atoms: C13_14  and  O3_18
REMARK                            x       y       z     vdW  Elec       q    Type
REMARK                         _______ _______ _______ _____ _____    ______ ____
ROOT
ATOM      1  C7  UNL     1     -19.546  12.473  37.170  0.00  0.00    +0.181 A 
ATOM      2  C8  UNL     1     -18.760  11.850  36.273  0.00  0.00    +0.208 A 
ATOM      3  C9  UNL     1     -19.400  11.175  35.121  0.00  0.00    +0.238 A 
ATOM      4  O1  UNL     1     -18.717  10.593  34.280  0.00  0.00    -0.283 OA
ATOM      5  C10 UNL     1     -20.859  11.230  35.028  0.00  0.00    +0.109 A 
ATOM      6  C11 UNL     1     -21.553  10.627  33.974  0.00  0.00    +0.135 A 
ATOM      7  C12 UNL     1     -22.943  10.699  33.918  0.00  0.00    +0.091 A 
ATOM      8  C13 UNL     1     -23.627  11.377  34.923  0.00  0.00    +0.124 A 
ATOM      9  C14 UNL     1     -22.946  11.980  35.977  0.00  0.00    +0.092 A 
ATOM     10  C15 UNL     1     -21.554  11.905  36.027  0.00  0.00    +0.147 A 
ATOM     11  O2  UNL     1     -20.934  12.515  37.086  0.00  0.00    -0.451 OA
ENDROOT
BRANCH   1  17
ATOM     12  C1  UNL     1     -18.682  12.464  39.538  0.00  0.00    +0.015 A 
ATOM     13  C2  UNL     1     -18.167  13.129  40.656  0.00  0.00    +0.050 A 
ATOM     14  C3  UNL     1     -17.982  14.503  40.600  0.00  0.00    +0.158 A 
ATOM     15  C4  UNL     1     -18.302  15.206  39.443  0.00  0.00    +0.159 A 
ATOM     16  C5  UNL     1     -18.816  14.554  38.330  0.00  0.00    +0.060 A 
ATOM     17  C6  UNL     1     -19.021  13.165  38.366  0.00  0.00    +0.025 A 
BRANCH  15  18
ATOM     18  O6  UNL     1     -18.113  16.558  39.394  0.00  0.00    -0.503 OA
ATOM     19  H9  UNL     1     -18.771  16.873  38.742  0.00  0.00    +0.292 HD
ENDBRANCH  15  18
BRANCH  14  20
ATOM     20  O7  UNL     1     -17.483  15.211  41.658  0.00  0.00    -0.503 OA
ATOM     21  H10 UNL     1     -17.848  16.112  41.617  0.00  0.00    +0.292 HD
ENDBRANCH  14  20
ENDBRANCH   1  17
BRANCH   8  22
ATOM     22  O3  UNL     1     -24.987  11.475  34.912  0.00  0.00    -0.507 OA
ATOM     23  H6  UNL     1     -25.348  10.942  35.641  0.00  0.00    +0.292 HD
ENDBRANCH   8  22
BRANCH   6  24
ATOM     24  O4  UNL     1     -20.931   9.948  32.962  0.00  0.00    -0.506 OA
ATOM     25  H7  UNL     1     -20.008  10.279  32.885  0.00  0.00    +0.292 HD
ENDBRANCH   6  24
BRANCH   2  26
ATOM     26  O5  UNL     1     -17.381  11.778  36.358  0.00  0.00    -0.501 OA
ATOM     27  H8  UNL     1     -17.176  10.823  36.431  0.00  0.00    +0.292 HD
ENDBRANCH   2  26
TORSDOF 6
ENDMDL
MODEL 5
REMARK VINA RESULT:    -7.538      1.404      3.264
REMARK INTER + INTRA:          -9.105
REMARK INTER:                  -9.070
REMARK INTRA:                  -0.034
REMARK UNBOUND:                -0.024
REMARK  Name = data/mahkota_dewa_dn/results/docking/ligands/pdb/Quercetin.pdb
REMARK  6 active torsions:
REMARK  status: ('A' for Active; 'I' for Inactive)
REMARK    1  A    between atoms: C3_3  and  O7_22
REMARK    2  A    between atoms: C4_4  and  O6_21
REMARK    3  A    between atoms: C6_6  and  C7_7
REMARK    4  A    between atoms: C8_8  and  O5_20
REMARK    5  A    between atoms: C11_12  and  O4_19
REMARK    6  A    between atoms: C13_14  and  O3_18
REMARK                            x       y       z     vdW  Elec       q    Type
REMARK                         _______ _______ _______ _____ _____    ______ ____
ROOT
ATOM      1  C7  UNL     1     -19.406  12.028  38.610  0.00  0.00    +0.181 A 
ATOM      2  C8  UNL     1     -18.440  11.109  38.425  0.00  0.00    +0.208 A 
ATOM      3  C9  UNL     1     -17.205  11.209  39.234  0.00  0.00    +0.238 A 
ATOM      4  O1  UNL     1     -16.298  10.390  39.094  0.00  0.00    -0.283 OA
ATOM      5  C10 UNL     1     -17.111  12.308  40.196  0.00  0.00    +0.109 A 
ATOM      6  C11 UNL     1     -15.987  12.482  41.009  0.00  0.00    +0.135 A 
ATOM      7  C12 UNL     1     -15.932  13.541  41.913  0.00  0.00    +0.091 A 
ATOM      8  C13 UNL     1     -17.009  14.419  41.994  0.00  0.00    +0.124 A 
ATOM      9  C14 UNL     1     -18.133  14.255  41.188  0.00  0.00    +0.092 A 
ATOM     10  C15 UNL     1     -18.182  13.192  40.285  0.00  0.00    +0.147 A 
ATOM     11  O2  UNL     1     -19.311  13.078  39.517  0.00  0.00    -0.451 OA
ENDROOT
BRANCH   1  17
ATOM     12  C1  UNL     1     -21.919  12.173  38.489  0.00  0.00    +0.015 A 
ATOM     13  C2  UNL     1     -23.111  12.202  37.756  0.00  0.00    +0.050 A 
ATOM     14  C3  UNL     1     -23.055  12.101  36.373  0.00  0.00    +0.158 A 
ATOM     15  C4  UNL     1     -21.829  11.977  35.727  0.00  0.00    +0.159 A 
ATOM     16  C5  UNL     1     -20.643  11.947  36.448  0.00  0.00    +0.060 A 
ATOM     17  C6  UNL     1     -20.673  12.037  37.849  0.00  0.00    +0.025 A 
BRANCH  15  18
ATOM     18  O6  UNL     1     -21.783  11.883  34.366  0.00  0.00    -0.503 OA
ATOM     19  H9  UNL     1     -22.695  11.646  34.106  0.00  0.00    +0.292 HD
ENDBRANCH  15  18
BRANCH  14  20
ATOM     20  O7  UNL     1     -24.183  12.122  35.599  0.00  0.00    -0.503 OA
ATOM     21  H10 UNL     1     -24.688  12.922  35.823  0.00  0.00    +0.292 HD
ENDBRANCH  14  20
ENDBRANCH   1  17
BRANCH   8  22
ATOM     22  O3  UNL     1     -17.003  15.470  42.863  0.00  0.00    -0.507 OA
ATOM     23  H6  UNL     1     -17.758  16.048  42.663  0.00  0.00    +0.292 HD
ENDBRANCH   8  22
BRANCH   6  24
ATOM     24  O4  UNL     1     -14.902  11.650  40.970  0.00  0.00    -0.506 OA
ATOM     25  H7  UNL     1     -14.504  11.697  40.071  0.00  0.00    +0.292 HD
ENDBRANCH   6  24
BRANCH   2  26
ATOM     26  O5  UNL     1     -18.511  10.075  37.509  0.00  0.00    -0.501 OA
ATOM     27  H8  UNL     1     -19.081   9.396  37.927  0.00  0.00    +0.292 HD
ENDBRANCH   2  26
TORSDOF 6
ENDMDL
MODEL 6
REMARK VINA RESULT:    -7.533      1.483      6.721
REMARK INTER + INTRA:          -9.099
REMARK INTER:                  -8.946
REMARK INTRA:                  -0.153
REMARK UNBOUND:                -0.024
REMARK  Name = data/mahkota_dewa_dn/results/docking/ligands/pdb/Quercetin.pdb
REMARK  6 active torsions:
REMARK  status: ('A' for Active; 'I' for Inactive)
REMARK    1  A    between atoms: C3_3  and  O7_22
REMARK    2  A    between atoms: C4_4  and  O6_21
REMARK    3  A    between atoms: C6_6  and  C7_7
REMARK    4  A    between atoms: C8_8  and  O5_20
REMARK    5  A    between atoms: C11_12  and  O4_19
REMARK    6  A    between atoms: C13_14  and  O3_18
REMARK                            x       y       z     vdW  Elec       q    Type
REMARK                         _______ _______ _______ _____ _____    ______ ____
ROOT
ATOM      1  C7  UNL     1     -19.727  12.362  38.018  0.00  0.00    +0.181 A 
ATOM      2  C8  UNL     1     -21.035  12.269  38.320  0.00  0.00    +0.208 A 
ATOM      3  C9  UNL     1     -21.999  12.039  37.221  0.00  0.00    +0.238 A 
ATOM      4  O1  UNL     1     -23.204  11.949  37.454  0.00  0.00    -0.283 OA
ATOM      5  C10 UNL     1     -21.465  11.923  35.863  0.00  0.00    +0.109 A 
ATOM      6  C11 UNL     1     -22.296  11.700  34.761  0.00  0.00    +0.135 A 
ATOM      7  C12 UNL     1     -21.752  11.597  33.482  0.00  0.00    +0.091 A 
ATOM      8  C13 UNL     1     -20.375  11.718  33.320  0.00  0.00    +0.124 A 
ATOM      9  C14 UNL     1     -19.539  11.941  34.411  0.00  0.00    +0.092 A 
ATOM     10  C15 UNL     1     -20.090  12.043  35.689  0.00  0.00    +0.147 A 
ATOM     11  O2  UNL     1     -19.221  12.263  36.727  0.00  0.00    -0.451 OA
ENDROOT
BRANCH   1  17
ATOM     12  C1  UNL     1     -17.607  11.712  39.216  0.00  0.00    +0.015 A 
ATOM     13  C2  UNL     1     -16.607  11.964  40.163  0.00  0.00    +0.050 A 
ATOM     14  C3  UNL     1     -16.675  13.123  40.923  0.00  0.00    +0.158 A 
ATOM     15  C4  UNL     1     -17.721  14.021  40.741  0.00  0.00    +0.159 A 
ATOM     16  C5  UNL     1     -18.717  13.777  39.804  0.00  0.00    +0.060 A 
ATOM     17  C6  UNL     1     -18.677  12.606  39.030  0.00  0.00    +0.025 A 
BRANCH  15  18
ATOM     18  O6  UNL     1     -17.778  15.162  41.489  0.00  0.00    -0.503 OA
ATOM     19  H9  UNL     1     -18.106  15.845  40.870  0.00  0.00    +0.292 HD
ENDBRANCH  15  18
BRANCH  14  20
ATOM     20  O7  UNL     1     -15.731  13.428  41.864  0.00  0.00    -0.503 OA
ATOM     21  H10 UNL     1     -16.183  13.542  42.718  0.00  0.00    +0.292 HD
ENDBRANCH  14  20
ENDBRANCH   1  17
BRANCH   8  22
ATOM     22  O3  UNL     1     -19.795  11.624  32.089  0.00  0.00    -0.507 OA
ATOM     23  H6  UNL     1     -20.203  10.887  31.604  0.00  0.00    +0.292 HD
ENDBRANCH   8  22
BRANCH   6  24
ATOM     24  O4  UNL     1     -23.654  11.574  34.863  0.00  0.00    -0.506 OA
ATOM     25  H7  UNL     1     -23.866  11.183  35.740  0.00  0.00    +0.292 HD
ENDBRANCH   6  24
BRANCH   2  26
ATOM     26  O5  UNL     1     -21.554  12.391  39.596  0.00  0.00    -0.501 OA
ATOM     27  H8  UNL     1     -21.557  13.354  39.783  0.00  0.00    +0.292 HD
ENDBRANCH   2  26
TORSDOF 6
ENDMDL
MODEL 7
REMARK VINA RESULT:    -7.008      2.138      6.622
REMARK INTER + INTRA:          -8.467
REMARK INTER:                  -8.130
REMARK INTRA:                  -0.337
REMARK UNBOUND:                -0.024
REMARK  Name = data/mahkota_dewa_dn/results/docking/ligands/pdb/Quercetin.pdb
REMARK  6 active torsions:
REMARK  status: ('A' for Active; 'I' for Inactive)
REMARK    1  A    between atoms: C3_3  and  O7_22
REMARK    2  A    between atoms: C4_4  and  O6_21
REMARK    3  A    between atoms: C6_6  and  C7_7
REMARK    4  A    between atoms: C8_8  and  O5_20
REMARK    5  A    between atoms: C11_12  and  O4_19
REMARK    6  A    between atoms: C13_14  and  O3_18
REMARK                            x       y       z     vdW  Elec       q    Type
REMARK                         _______ _______ _______ _____ _____    ______ ____
ROOT
ATOM      1  C7  UNL     1     -20.585  12.389  37.079  0.00  0.00    +0.181 A 
ATOM      2  C8  UNL     1     -21.911  12.520  36.887  0.00  0.00    +0.208 A 
ATOM      3  C9  UNL     1     -22.548  11.742  35.801  0.00  0.00    +0.238 A 
ATOM      4  O1  UNL     1     -23.757  11.835  35.591  0.00  0.00    -0.283 OA
ATOM      5  C10 UNL     1     -21.690  10.868  34.999  0.00  0.00    +0.109 A 
ATOM      6  C11 UNL     1     -22.201  10.090  33.956  0.00  0.00    +0.135 A 
ATOM      7  C12 UNL     1     -21.355   9.270  33.213  0.00  0.00    +0.091 A 
ATOM      8  C13 UNL     1     -19.998   9.238  33.524  0.00  0.00    +0.124 A 
ATOM      9  C14 UNL     1     -19.479  10.010  34.561  0.00  0.00    +0.092 A 
ATOM     10  C15 UNL     1     -20.333  10.828  35.301  0.00  0.00    +0.147 A 
ATOM     11  O2  UNL     1     -19.769  11.567  36.309  0.00  0.00    -0.451 OA
ENDROOT
BRANCH   1  17
ATOM     12  C1  UNL     1     -19.708  12.628  39.430  0.00  0.00    +0.015 A 
ATOM     13  C2  UNL     1     -18.982  13.326  40.401  0.00  0.00    +0.050 A 
ATOM     14  C3  UNL     1     -18.377  14.527  40.059  0.00  0.00    +0.158 A 
ATOM     15  C4  UNL     1     -18.490  15.026  38.765  0.00  0.00    +0.159 A 
ATOM     16  C5  UNL     1     -19.210  14.339  37.796  0.00  0.00    +0.060 A 
ATOM     17  C6  UNL     1     -19.840  13.127  38.120  0.00  0.00    +0.025 A 
BRANCH  15  18
ATOM     18  O6  UNL     1     -17.888  16.206  38.435  0.00  0.00    -0.503 OA
ATOM     19  H9  UNL     1     -18.582  16.882  38.573  0.00  0.00    +0.292 HD
ENDBRANCH  15  18
BRANCH  14  20
ATOM     20  O7  UNL     1     -17.655  15.258  40.961  0.00  0.00    -0.503 OA
ATOM     21  H10 UNL     1     -18.003  15.068  41.850  0.00  0.00    +0.292 HD
ENDBRANCH  14  20
ENDBRANCH   1  17
BRANCH   8  22
ATOM     22  O3  UNL     1     -19.130   8.452  32.826  0.00  0.00    -0.507 OA
ATOM     23  H6  UNL     1     -18.675   8.996  32.162  0.00  0.00    +0.292 HD
ENDBRANCH   8  22
BRANCH   6  24
ATOM     24  O4  UNL     1     -23.524  10.084  33.607  0.00  0.00    -0.506 OA
ATOM     25  H7  UNL     1     -23.856  11.010  33.625  0.00  0.00    +0.292 HD
ENDBRANCH   6  24
BRANCH   2  26
ATOM     26  O5  UNL     1     -22.729  13.354  37.627  0.00  0.00    -0.501 OA
ATOM     27  H8  UNL     1     -22.450  14.264  37.395  0.00  0.00    +0.292 HD
ENDBRANCH   2  26
TORSDOF 6
ENDMDL
MODEL 8
REMARK VINA RESULT:    -6.840      1.944      7.085
REMARK INTER + INTRA:          -8.264
REMARK INTER:                  -8.505
REMARK INTRA:                   0.241
REMARK UNBOUND:                -0.024
REMARK  Name = data/mahkota_dewa_dn/results/docking/ligands/pdb/Quercetin.pdb
REMARK  6 active torsions:
REMARK  status: ('A' for Active; 'I' for Inactive)
REMARK    1  A    between atoms: C3_3  and  O7_22
REMARK    2  A    between atoms: C4_4  and  O6_21
REMARK    3  A    between atoms: C6_6  and  C7_7
REMARK    4  A    between atoms: C8_8  and  O5_20
REMARK    5  A    between atoms: C11_12  and  O4_19
REMARK    6  A    between atoms: C13_14  and  O3_18
REMARK                            x       y       z     vdW  Elec       q    Type
REMARK                         _______ _______ _______ _____ _____    ______ ____
ROOT
ATOM      1  C7  UNL     1     -18.252  12.155  37.690  0.00  0.00    +0.181 A 
ATOM      2  C8  UNL     1     -17.474  11.125  37.311  0.00  0.00    +0.208 A 
ATOM      3  C9  UNL     1     -17.900  10.307  36.153  0.00  0.00    +0.238 A 
ATOM      4  O1  UNL     1     -17.219   9.355  35.775  0.00  0.00    -0.283 OA
ATOM      5  C10 UNL     1     -19.149  10.676  35.485  0.00  0.00    +0.109 A 
ATOM      6  C11 UNL     1     -19.631   9.968  34.380  0.00  0.00    +0.135 A 
ATOM      7  C12 UNL     1     -20.824  10.347  33.770  0.00  0.00    +0.091 A 
ATOM      8  C13 UNL     1     -21.527  11.437  34.275  0.00  0.00    +0.124 A 
ATOM      9  C14 UNL     1     -21.056  12.148  35.376  0.00  0.00    +0.092 A 
ATOM     10  C15 UNL     1     -19.860  11.764  35.982  0.00  0.00    +0.147 A 
ATOM     11  O2  UNL     1     -19.444  12.498  37.062  0.00  0.00    -0.451 OA
ENDROOT
BRANCH   1  17
ATOM     12  C1  UNL     1     -18.413  14.351  38.918  0.00  0.00    +0.015 A 
ATOM     13  C2  UNL     1     -18.124  15.162  40.021  0.00  0.00    +0.050 A 
ATOM     14  C3  UNL     1     -17.358  14.645  41.057  0.00  0.00    +0.158 A 
ATOM     15  C4  UNL     1     -16.890  13.337  40.997  0.00  0.00    +0.159 A 
ATOM     16  C5  UNL     1     -17.171  12.527  39.905  0.00  0.00    +0.060 A 
ATOM     17  C6  UNL     1     -17.935  13.029  38.840  0.00  0.00    +0.025 A 
BRANCH  15  18
ATOM     18  O6  UNL     1     -16.141  12.834  42.023  0.00  0.00    -0.503 OA
ATOM     19  H9  UNL     1     -15.361  13.424  42.068  0.00  0.00    +0.292 HD
ENDBRANCH  15  18
BRANCH  14  20
ATOM     20  O7  UNL     1     -17.040  15.386  42.162  0.00  0.00    -0.503 OA
ATOM     21  H10 UNL     1     -17.654  16.139  42.207  0.00  0.00    +0.292 HD
ENDBRANCH  14  20
ENDBRANCH   1  17
BRANCH   8  22
ATOM     22  O3  UNL     1     -22.700  11.847  33.713  0.00  0.00    -0.507 OA
ATOM     23  H6  UNL     1     -22.518  12.584  33.107  0.00  0.00    +0.292 HD
ENDBRANCH   8  22
BRANCH   6  24
ATOM     24  O4  UNL     1     -18.982   8.889  33.843  0.00  0.00    -0.506 OA
ATOM     25  H7  UNL     1     -18.890   9.031  32.875  0.00  0.00    +0.292 HD
ENDBRANCH   6  24
BRANCH   2  26
ATOM     26  O5  UNL     1     -16.300  10.757  37.943  0.00  0.00    -0.501 OA
ATOM     27  H8  UNL     1     -16.580  10.256  38.738  0.00  0.00    +0.292 HD
ENDBRANCH   2  26
TORSDOF 6
ENDMDL
MODEL 9
REMARK VINA RESULT:    -6.733     10.055     12.036
REMARK INTER + INTRA:          -8.135
REMARK INTER:                  -8.224
REMARK INTRA:                   0.089
REMARK UNBOUND:                -0.024
REMARK  Name = data/mahkota_dewa_dn/results/docking/ligands/pdb/Quercetin.pdb
REMARK  6 active torsions:
REMARK  status: ('A' for Active; 'I' for Inactive)
REMARK    1  A    between atoms: C3_3  and  O7_22
REMARK    2  A    between atoms: C4_4  and  O6_21
REMARK    3  A    between atoms: C6_6  and  C7_7
REMARK    4  A    between atoms: C8_8  and  O5_20
REMARK    5  A    between atoms: C11_12  and  O4_19
REMARK    6  A    between atoms: C13_14  and  O3_18
REMARK                            x       y       z     vdW  Elec       q    Type
REMARK                         _______ _______ _______ _____ _____    ______ ____
ROOT
ATOM      1  C7  UNL     1     -16.335   4.488  45.398  0.00  0.00    +0.181 A 
ATOM      2  C8  UNL     1     -16.287   5.833  45.424  0.00  0.00    +0.208 A 
ATOM      3  C9  UNL     1     -15.386   6.526  44.476  0.00  0.00    +0.238 A 
ATOM      4  O1  UNL     1     -15.311   7.753  44.469  0.00  0.00    -0.283 OA
ATOM      5  C10 UNL     1     -14.599   5.699  43.560  0.00  0.00    +0.109 A 
ATOM      6  C11 UNL     1     -13.725   6.262  42.625  0.00  0.00    +0.135 A 
ATOM      7  C12 UNL     1     -12.991   5.443  41.769  0.00  0.00    +0.091 A 
ATOM      8  C13 UNL     1     -13.141   4.062  41.859  0.00  0.00    +0.124 A 
ATOM      9  C14 UNL     1     -14.009   3.492  42.787  0.00  0.00    +0.092 A 
ATOM     10  C15 UNL     1     -14.741   4.317  43.640  0.00  0.00    +0.147 A 
ATOM     11  O2  UNL     1     -15.579   3.702  44.535  0.00  0.00    -0.451 OA
ENDROOT
BRANCH   1  17
ATOM     12  C1  UNL     1     -16.718   2.504  46.906  0.00  0.00    +0.015 A 
ATOM     13  C2  UNL     1     -17.524   1.768  47.780  0.00  0.00    +0.050 A 
ATOM     14  C3  UNL     1     -18.804   2.223  48.064  0.00  0.00    +0.158 A 
ATOM     15  C4  UNL     1     -19.274   3.399  47.488  0.00  0.00    +0.159 A 
ATOM     16  C5  UNL     1     -18.479   4.135  46.618  0.00  0.00    +0.060 A 
ATOM     17  C6  UNL     1     -17.185   3.689  46.307  0.00  0.00    +0.025 A 
BRANCH  15  18
ATOM     18  O6  UNL     1     -20.533   3.843  47.776  0.00  0.00    -0.503 OA
ATOM     19  H9  UNL     1     -21.056   3.027  47.906  0.00  0.00    +0.292 HD
ENDBRANCH  15  18
BRANCH  14  20
ATOM     20  O7  UNL     1     -19.642   1.550  48.910  0.00  0.00    -0.503 OA
ATOM     21  H10 UNL     1     -20.512   1.983  48.880  0.00  0.00    +0.292 HD
ENDBRANCH  14  20
ENDBRANCH   1  17
BRANCH   8  22
ATOM     22  O3  UNL     1     -12.446   3.220  41.043  0.00  0.00    -0.507 OA
ATOM     23  H6  UNL     1     -11.515   3.500  41.020  0.00  0.00    +0.292 HD
ENDBRANCH   8  22
BRANCH   6  24
ATOM     24  O4  UNL     1     -13.539   7.611  42.495  0.00  0.00    -0.506 OA
ATOM     25  H7  UNL     1     -12.773   7.764  41.898  0.00  0.00    +0.292 HD
ENDBRANCH   6  24
BRANCH   2  26
ATOM     26  O5  UNL     1     -17.014   6.624  46.295  0.00  0.00    -0.501 OA
ATOM     27  H8  UNL     1     -16.888   7.543  45.977  0.00  0.00    +0.292 HD
ENDBRANCH   2  26
TORSDOF 6
ENDMDL
