MODEL 1
REMARK VINA RESULT:    -4.010      0.000      0.000
REMARK INTER + INTRA:          -4.967
REMARK INTER:                  -4.831
REMARK INTRA:                  -0.136
REMARK UNBOUND:                -0.136
REMARK  Name = data/mahkota_dewa_dn/results/docking/ligands/pdb/Caffeic_acid.pdb
REMARK  5 active torsions:
REMARK  status: ('A' for Active; 'I' for Inactive)
REMARK    1  A    between atoms: C3_3  and  O4_13
REMARK    2  A    between atoms: C4_4  and  O3_12
REMARK    3  A    between atoms: C6_6  and  C7_7
REMARK    4  A    between atoms: C8_8  and  C9_9
REMARK    5  A    between atoms: C9_9  and  O2_11
REMARK                            x       y       z     vdW  Elec       q    Type
REMARK                         _______ _______ _______ _____ _____    ______ ____
ROOT
ATOM      1  C1  UNL     1      16.890   4.028  16.993  0.00  0.00    +0.012 A 
ATOM      2  C2  UNL     1      17.147   2.674  16.746  0.00  0.00    +0.050 A 
ATOM      3  C3  UNL     1      16.280   1.960  15.931  0.00  0.00    +0.158 A 
ATOM      4  C4  UNL     1      15.167   2.585  15.374  0.00  0.00    +0.159 A 
ATOM      5  C5  UNL     1      14.904   3.927  15.615  0.00  0.00    +0.057 A 
ATOM      6  C6  UNL     1      15.777   4.671  16.422  0.00  0.00    -0.021 A 
ENDROOT
BRANCH   6   7
ATOM      7  C7  UNL     1      15.542   6.087  16.739  0.00  0.00    +0.015 C 
ATOM      8  C8  UNL     1      15.234   6.538  17.965  0.00  0.00    +0.092 C 
BRANCH   8   9
ATOM      9  C9  UNL     1      14.989   7.954  18.272  0.00  0.00    +0.330 C 
ATOM     10  O1  UNL     1      15.825   8.834  18.166  0.00  0.00    -0.246 OA
BRANCH   9  11
ATOM     11  O2  UNL     1      13.742   8.216  18.689  0.00  0.00    -0.478 OA
ATOM     12  H6  UNL     1      13.188   7.616  18.149  0.00  0.00    +0.295 HD
ENDBRANCH   9  11
ENDBRANCH   8   9
ENDBRANCH   6   7
BRANCH   4  13
ATOM     13  O3  UNL     1      14.313   1.872  14.582  0.00  0.00    -0.503 OA
ATOM     14  H7  UNL     1      14.668   1.982  13.677  0.00  0.00    +0.292 HD
ENDBRANCH   4  13
BRANCH   3  15
ATOM     15  O4  UNL     1      16.475   0.636  15.650  0.00  0.00    -0.503 OA
ATOM     16  H8  UNL     1      17.114   0.572  14.921  0.00  0.00    +0.292 HD
ENDBRANCH   3  15
TORSDOF 5
ENDMDL
MODEL 2
REMARK VINA RESULT:    -3.915      8.696      9.443
REMARK INTER + INTRA:          -4.852
REMARK INTER:                  -4.722
REMARK INTRA:                  -0.130
REMARK UNBOUND:                -0.136
REMARK  Name = data/mahkota_dewa_dn/results/docking/ligands/pdb/Caffeic_acid.pdb
REMARK  5 active torsions:
REMARK  status: ('A' for Active; 'I' for Inactive)
REMARK    1  A    between atoms: C3_3  and  O4_13
REMARK    2  A    between atoms: C4_4  and  O3_12
REMARK    3  A    between atoms: C6_6  and  C7_7
REMARK    4  A    between atoms: C8_8  and  C9_9
REMARK    5  A    between atoms: C9_9  and  O2_11
REMARK                            x       y       z     vdW  Elec       q    Type
REMARK                         _______ _______ _______ _____ _____    ______ ____
ROOT
ATOM      1  C1  UNL     1      12.913  10.307  11.966  0.00  0.00    +0.012 A 
ATOM      2  C2  UNL     1      13.303   9.002  12.289  0.00  0.00    +0.050 A 
ATOM      3  C3  UNL     1      12.594   7.934  11.756  0.00  0.00    +0.158 A 
ATOM      4  C4  UNL     1      11.507   8.163  10.918  0.00  0.00    +0.159 A 
ATOM      5  C5  UNL     1      11.113   9.454  10.593  0.00  0.00    +0.057 A 
ATOM      6  C6  UNL     1      11.825  10.547  11.106  0.00  0.00    -0.021 A 
ENDROOT
BRANCH   6   7
ATOM      7  C7  UNL     1      11.444  11.938  10.823  0.00  0.00    +0.015 C 
ATOM      8  C8  UNL     1      10.405  12.287  10.049  0.00  0.00    +0.092 C 
BRANCH   8   9
ATOM      9  C9  UNL     1      10.037  13.680   9.762  0.00  0.00    +0.330 C 
ATOM     10  O1  UNL     1      10.809  14.620   9.824  0.00  0.00    -0.246 OA
BRANCH   9  11
ATOM     11  O2  UNL     1       8.753  13.848   9.416  0.00  0.00    -0.478 OA
ATOM     12  H6  UNL     1       8.635  14.820   9.431  0.00  0.00    +0.295 HD
ENDBRANCH   9  11
ENDBRANCH   8   9
ENDBRANCH   6   7
BRANCH   4  13
ATOM     13  O3  UNL     1      10.809   7.106  10.407  0.00  0.00    -0.503 OA
ATOM     14  H7  UNL     1       9.902   7.221  10.755  0.00  0.00    +0.292 HD
ENDBRANCH   4  13
BRANCH   3  15
ATOM     15  O4  UNL     1      12.924   6.637  12.033  0.00  0.00    -0.503 OA
ATOM     16  H8  UNL     1      13.892   6.579  12.105  0.00  0.00    +0.292 HD
ENDBRANCH   3  15
TORSDOF 5
ENDMDL
MODEL 3
REMARK VINA RESULT:    -3.799      3.071      3.935
REMARK INTER + INTRA:          -4.712
REMARK INTER:                  -4.563
REMARK INTRA:                  -0.149
REMARK UNBOUND:                -0.136
REMARK  Name = data/mahkota_dewa_dn/results/docking/ligands/pdb/Caffeic_acid.pdb
REMARK  5 active torsions:
REMARK  status: ('A' for Active; 'I' for Inactive)
REMARK    1  A    between atoms: C3_3  and  O4_13
REMARK    2  A    between atoms: C4_4  and  O3_12
REMARK    3  A    between atoms: C6_6  and  C7_7
REMARK    4  A    between atoms: C8_8  and  C9_9
REMARK    5  A    between atoms: C9_9  and  O2_11
REMARK                            x       y       z     vdW  Elec       q    Type
REMARK                         _______ _______ _______ _____ _____    ______ ____
ROOT
ATOM      1  C1  UNL     1      16.624   2.522  15.470  0.00  0.00    +0.012 A 
ATOM      2  C2  UNL     1      15.894   2.186  14.324  0.00  0.00    +0.050 A 
ATOM      3  C3  UNL     1      14.821   2.983  13.950  0.00  0.00    +0.158 A 
ATOM      4  C4  UNL     1      14.476   4.096  14.710  0.00  0.00    +0.159 A 
ATOM      5  C5  UNL     1      15.195   4.436  15.849  0.00  0.00    +0.057 A 
ATOM      6  C6  UNL     1      16.293   3.655  16.235  0.00  0.00    -0.021 A 
ENDROOT
BRANCH   6   7
ATOM      7  C7  UNL     1      17.078   3.943  17.444  0.00  0.00    +0.015 C 
ATOM      8  C8  UNL     1      17.716   3.006  18.163  0.00  0.00    +0.092 C 
BRANCH   8   9
ATOM      9  C9  UNL     1      18.489   3.300  19.377  0.00  0.00    +0.330 C 
ATOM     10  O1  UNL     1      19.689   3.125  19.485  0.00  0.00    -0.246 OA
BRANCH   9  11
ATOM     11  O2  UNL     1      17.757   3.790  20.388  0.00  0.00    -0.478 OA
ATOM     12  H6  UNL     1      17.726   4.752  20.204  0.00  0.00    +0.295 HD
ENDBRANCH   9  11
ENDBRANCH   8   9
ENDBRANCH   6   7
BRANCH   4  13
ATOM     13  O3  UNL     1      13.412   4.869  14.341  0.00  0.00    -0.503 OA
ATOM     14  H7  UNL     1      13.386   5.585  15.006  0.00  0.00    +0.292 HD
ENDBRANCH   4  13
BRANCH   3  15
ATOM     15  O4  UNL     1      14.068   2.709  12.842  0.00  0.00    -0.503 OA
ATOM     16  H8  UNL     1      13.348   3.360  12.797  0.00  0.00    +0.292 HD
ENDBRANCH   3  15
TORSDOF 5
ENDMDL
MODEL 4
REMARK VINA RESULT:    -3.789      3.564      3.866
REMARK INTER + INTRA:          -4.701
REMARK INTER:                  -4.574
REMARK INTRA:                  -0.126
REMARK UNBOUND:                -0.136
REMARK  Name = data/mahkota_dewa_dn/results/docking/ligands/pdb/Caffeic_acid.pdb
REMARK  5 active torsions:
REMARK  status: ('A' for Active; 'I' for Inactive)
REMARK    1  A    between atoms: C3_3  and  O4_13
REMARK    2  A    between atoms: C4_4  and  O3_12
REMARK    3  A    between atoms: C6_6  and  C7_7
REMARK    4  A    between atoms: C8_8  and  C9_9
REMARK    5  A    between atoms: C9_9  and  O2_11
REMARK                            x       y       z     vdW  Elec       q    Type
REMARK                         _______ _______ _______ _____ _____    ______ ____
ROOT
ATOM      1  C1  UNL     1      16.420   3.939  14.446  0.00  0.00    +0.012 A 
ATOM      2  C2  UNL     1      16.775   2.986  15.407  0.00  0.00    +0.050 A 
ATOM      3  C3  UNL     1      15.793   2.151  15.924  0.00  0.00    +0.158 A 
ATOM      4  C4  UNL     1      14.475   2.269  15.494  0.00  0.00    +0.159 A 
ATOM      5  C5  UNL     1      14.114   3.213  14.542  0.00  0.00    +0.057 A 
ATOM      6  C6  UNL     1      15.092   4.054  13.994  0.00  0.00    -0.021 A 
ENDROOT
BRANCH   6   7
ATOM      7  C7  UNL     1      14.773   5.092  13.003  0.00  0.00    +0.015 C 
ATOM      8  C8  UNL     1      14.005   6.162  13.261  0.00  0.00    +0.092 C 
BRANCH   8   9
ATOM      9  C9  UNL     1      13.680   7.190  12.262  0.00  0.00    +0.330 C 
ATOM     10  O1  UNL     1      14.404   8.129  11.983  0.00  0.00    -0.246 OA
BRANCH   9  11
ATOM     11  O2  UNL     1      12.494   7.014  11.662  0.00  0.00    -0.478 OA
ATOM     12  H6  UNL     1      12.088   6.280  12.166  0.00  0.00    +0.295 HD
ENDBRANCH   9  11
ENDBRANCH   8   9
ENDBRANCH   6   7
BRANCH   4  13
ATOM     13  O3  UNL     1      13.514   1.451  16.017  0.00  0.00    -0.503 OA
ATOM     14  H7  UNL     1      12.692   1.979  15.974  0.00  0.00    +0.292 HD
ENDBRANCH   4  13
BRANCH   3  15
ATOM     15  O4  UNL     1      16.075   1.200  16.865  0.00  0.00    -0.503 OA
ATOM     16  H8  UNL     1      17.041   1.122  16.938  0.00  0.00    +0.292 HD
ENDBRANCH   3  15
TORSDOF 5
ENDMDL
MODEL 5
REMARK VINA RESULT:    -3.757      9.197     11.020
REMARK INTER + INTRA:          -4.662
REMARK INTER:                  -4.534
REMARK INTRA:                  -0.129
REMARK UNBOUND:                -0.136
REMARK  Name = data/mahkota_dewa_dn/results/docking/ligands/pdb/Caffeic_acid.pdb
REMARK  5 active torsions:
REMARK  status: ('A' for Active; 'I' for Inactive)
REMARK    1  A    between atoms: C3_3  and  O4_13
REMARK    2  A    between atoms: C4_4  and  O3_12
REMARK    3  A    between atoms: C6_6  and  C7_7
REMARK    4  A    between atoms: C8_8  and  C9_9
REMARK    5  A    between atoms: C9_9  and  O2_11
REMARK                            x       y       z     vdW  Elec       q    Type
REMARK                         _______ _______ _______ _____ _____    ______ ____
ROOT
ATOM      1  C1  UNL     1      10.810  10.687   8.672  0.00  0.00    +0.012 A 
ATOM      2  C2  UNL     1       9.937  11.724   8.327  0.00  0.00    +0.050 A 
ATOM      3  C3  UNL     1       9.417  12.531   9.329  0.00  0.00    +0.158 A 
ATOM      4  C4  UNL     1       9.758  12.304  10.659  0.00  0.00    +0.159 A 
ATOM      5  C5  UNL     1      10.624  11.277  11.011  0.00  0.00    +0.057 A 
ATOM      6  C6  UNL     1      11.173  10.460  10.013  0.00  0.00    -0.021 A 
ENDROOT
BRANCH   6   7
ATOM      7  C7  UNL     1      12.073   9.339  10.319  0.00  0.00    +0.015 C 
ATOM      8  C8  UNL     1      12.417   8.974  11.564  0.00  0.00    +0.092 C 
BRANCH   8   9
ATOM      9  C9  UNL     1      13.327   7.860  11.862  0.00  0.00    +0.330 C 
ATOM     10  O1  UNL     1      14.513   7.989  12.107  0.00  0.00    -0.246 OA
BRANCH   9  11
ATOM     11  O2  UNL     1      12.740   6.654  11.844  0.00  0.00    -0.478 OA
ATOM     12  H6  UNL     1      12.135   6.682  12.613  0.00  0.00    +0.295 HD
ENDBRANCH   9  11
ENDBRANCH   8   9
ENDBRANCH   6   7
BRANCH   4  13
ATOM     13  O3  UNL     1       9.234  13.096  11.640  0.00  0.00    -0.503 OA
ATOM     14  H7  UNL     1       8.267  13.059  11.496  0.00  0.00    +0.292 HD
ENDBRANCH   4  13
BRANCH   3  15
ATOM     15  O4  UNL     1       8.559  13.561   9.058  0.00  0.00    -0.503 OA
ATOM     16  H8  UNL     1       7.779  13.195   8.606  0.00  0.00    +0.292 HD
ENDBRANCH   3  15
TORSDOF 5
ENDMDL
MODEL 6
REMARK VINA RESULT:    -3.724      4.127      7.497
REMARK INTER + INTRA:          -4.622
REMARK INTER:                  -4.467
REMARK INTRA:                  -0.156
REMARK UNBOUND:                -0.136
REMARK  Name = data/mahkota_dewa_dn/results/docking/ligands/pdb/Caffeic_acid.pdb
REMARK  5 active torsions:
REMARK  status: ('A' for Active; 'I' for Inactive)
REMARK    1  A    between atoms: C3_3  and  O4_13
REMARK    2  A    between atoms: C4_4  and  O3_12
REMARK    3  A    between atoms: C6_6  and  C7_7
REMARK    4  A    between atoms: C8_8  and  C9_9
REMARK    5  A    between atoms: C9_9  and  O2_11
REMARK                            x       y       z     vdW  Elec       q    Type
REMARK                         _______ _______ _______ _____ _____    ______ ____
ROOT
ATOM      1  C1  UNL     1      15.302   3.800  11.955  0.00  0.00    +0.012 A 
ATOM      2  C2  UNL     1      14.970   4.898  12.758  0.00  0.00    +0.050 A 
ATOM      3  C3  UNL     1      14.568   4.679  14.068  0.00  0.00    +0.158 A 
ATOM      4  C4  UNL     1      14.492   3.383  14.570  0.00  0.00    +0.159 A 
ATOM      5  C5  UNL     1      14.819   2.289  13.780  0.00  0.00    +0.057 A 
ATOM      6  C6  UNL     1      15.244   2.488  12.460  0.00  0.00    -0.021 A 
ENDROOT
BRANCH   6   7
ATOM      7  C7  UNL     1      15.578   1.373  11.563  0.00  0.00    +0.015 C 
ATOM      8  C8  UNL     1      16.034   1.531  10.310  0.00  0.00    +0.092 C 
BRANCH   8   9
ATOM      9  C9  UNL     1      16.355   0.411   9.415  0.00  0.00    +0.330 C 
ATOM     10  O1  UNL     1      17.265   0.418   8.606  0.00  0.00    -0.246 OA
BRANCH   9  11
ATOM     11  O2  UNL     1      15.550  -0.651   9.557  0.00  0.00    -0.478 OA
ATOM     12  H6  UNL     1      15.885  -1.285   8.889  0.00  0.00    +0.295 HD
ENDBRANCH   9  11
ENDBRANCH   8   9
ENDBRANCH   6   7
BRANCH   4  13
ATOM     13  O3  UNL     1      14.084   3.176  15.857  0.00  0.00    -0.503 OA
ATOM     14  H7  UNL     1      14.448   3.935  16.355  0.00  0.00    +0.292 HD
ENDBRANCH   4  13
BRANCH   3  15
ATOM     15  O4  UNL     1      14.230   5.707  14.903  0.00  0.00    -0.503 OA
ATOM     16  H8  UNL     1      14.233   5.371  15.815  0.00  0.00    +0.292 HD
ENDBRANCH   3  15
TORSDOF 5
ENDMDL
MODEL 7
REMARK VINA RESULT:    -3.621      4.926      6.521
REMARK INTER + INTRA:          -4.499
REMARK INTER:                  -4.372
REMARK INTRA:                  -0.127
REMARK UNBOUND:                -0.136
REMARK  Name = data/mahkota_dewa_dn/results/docking/ligands/pdb/Caffeic_acid.pdb
REMARK  5 active torsions:
REMARK  status: ('A' for Active; 'I' for Inactive)
REMARK    1  A    between atoms: C3_3  and  O4_13
REMARK    2  A    between atoms: C4_4  and  O3_12
REMARK    3  A    between atoms: C6_6  and  C7_7
REMARK    4  A    between atoms: C8_8  and  C9_9
REMARK    5  A    between atoms: C9_9  and  O2_11
REMARK                            x       y       z     vdW  Elec       q    Type
REMARK                         _______ _______ _______ _____ _____    ______ ____
ROOT
ATOM      1  C1  UNL     1      16.212   2.745  10.320  0.00  0.00    +0.012 A 
ATOM      2  C2  UNL     1      16.438   2.296   9.014  0.00  0.00    +0.050 A 
ATOM      3  C3  UNL     1      16.332   0.939   8.739  0.00  0.00    +0.158 A 
ATOM      4  C4  UNL     1      16.011   0.042   9.753  0.00  0.00    +0.159 A 
ATOM      5  C5  UNL     1      15.787   0.479  11.052  0.00  0.00    +0.057 A 
ATOM      6  C6  UNL     1      15.872   1.847  11.348  0.00  0.00    -0.021 A 
ENDROOT
BRANCH   6   7
ATOM      7  C7  UNL     1      15.673   2.372  12.706  0.00  0.00    +0.015 C 
ATOM      8  C8  UNL     1      14.472   2.687  13.218  0.00  0.00    +0.092 C 
BRANCH   8   9
ATOM      9  C9  UNL     1      14.282   3.224  14.573  0.00  0.00    +0.330 C 
ATOM     10  O1  UNL     1      14.683   2.682  15.588  0.00  0.00    -0.246 OA
BRANCH   9  11
ATOM     11  O2  UNL     1      13.616   4.386  14.613  0.00  0.00    -0.478 OA
ATOM     12  H6  UNL     1      14.022   4.858  15.369  0.00  0.00    +0.295 HD
ENDBRANCH   9  11
ENDBRANCH   8   9
ENDBRANCH   6   7
BRANCH   4  13
ATOM     13  O3  UNL     1      15.920  -1.292   9.476  0.00  0.00    -0.503 OA
ATOM     14  H7  UNL     1      15.065  -1.566   9.865  0.00  0.00    +0.292 HD
ENDBRANCH   4  13
BRANCH   3  15
ATOM     15  O4  UNL     1      16.541   0.437   7.485  0.00  0.00    -0.503 OA
ATOM     16  H8  UNL     1      15.823  -0.188   7.286  0.00  0.00    +0.292 HD
ENDBRANCH   3  15
TORSDOF 5
ENDMDL
MODEL 8
REMARK VINA RESULT:    -3.577      3.195      3.797
REMARK INTER + INTRA:          -4.445
REMARK INTER:                  -4.317
REMARK INTRA:                  -0.129
REMARK UNBOUND:                -0.136
REMARK  Name = data/mahkota_dewa_dn/results/docking/ligands/pdb/Caffeic_acid.pdb
REMARK  5 active torsions:
REMARK  status: ('A' for Active; 'I' for Inactive)
REMARK    1  A    between atoms: C3_3  and  O4_13
REMARK    2  A    between atoms: C4_4  and  O3_12
REMARK    3  A    between atoms: C6_6  and  C7_7
REMARK    4  A    between atoms: C8_8  and  C9_9
REMARK    5  A    between atoms: C9_9  and  O2_11
REMARK                            x       y       z     vdW  Elec       q    Type
REMARK                         _______ _______ _______ _____ _____    ______ ____
ROOT
ATOM      1  C1  UNL     1      15.301   4.830  12.254  0.00  0.00    +0.012 A 
ATOM      2  C2  UNL     1      15.325   3.496  11.831  0.00  0.00    +0.050 A 
ATOM      3  C3  UNL     1      14.875   2.506  12.694  0.00  0.00    +0.158 A 
ATOM      4  C4  UNL     1      14.412   2.839  13.963  0.00  0.00    +0.159 A 
ATOM      5  C5  UNL     1      14.386   4.160  14.391  0.00  0.00    +0.057 A 
ATOM      6  C6  UNL     1      14.820   5.177  13.530  0.00  0.00    -0.021 A 
ENDROOT
BRANCH   6   7
ATOM      7  C7  UNL     1      14.844   6.592  13.930  0.00  0.00    +0.015 C 
ATOM      8  C8  UNL     1      13.957   7.505  13.506  0.00  0.00    +0.092 C 
BRANCH   8   9
ATOM      9  C9  UNL     1      13.994   8.919  13.901  0.00  0.00    +0.330 C 
ATOM     10  O1  UNL     1      14.594   9.786  13.292  0.00  0.00    -0.246 OA
BRANCH   9  11
ATOM     11  O2  UNL     1      13.299   9.196  15.013  0.00  0.00    -0.478 OA
ATOM     12  H6  UNL     1      12.472   8.683  14.901  0.00  0.00    +0.295 HD
ENDBRANCH   9  11
ENDBRANCH   8   9
ENDBRANCH   6   7
BRANCH   4  13
ATOM     13  O3  UNL     1      13.981   1.858  14.809  0.00  0.00    -0.503 OA
ATOM     14  H7  UNL     1      14.373   2.091  15.675  0.00  0.00    +0.292 HD
ENDBRANCH   4  13
BRANCH   3  15
ATOM     15  O4  UNL     1      14.872   1.185  12.341  0.00  0.00    -0.503 OA
ATOM     16  H8  UNL     1      14.267   1.073  11.588  0.00  0.00    +0.292 HD
ENDBRANCH   3  15
TORSDOF 5
ENDMDL
MODEL 9
REMARK VINA RESULT:    -3.569      2.833      4.608
REMARK INTER + INTRA:          -4.435
REMARK INTER:                  -4.288
REMARK INTRA:                  -0.147
REMARK UNBOUND:                -0.136
REMARK  Name = data/mahkota_dewa_dn/results/docking/ligands/pdb/Caffeic_acid.pdb
REMARK  5 active torsions:
REMARK  status: ('A' for Active; 'I' for Inactive)
REMARK    1  A    between atoms: C3_3  and  O4_13
REMARK    2  A    between atoms: C4_4  and  O3_12
REMARK    3  A    between atoms: C6_6  and  C7_7
REMARK    4  A    between atoms: C8_8  and  C9_9
REMARK    5  A    between atoms: C9_9  and  O2_11
REMARK                            x       y       z     vdW  Elec       q    Type
REMARK                         _______ _______ _______ _____ _____    ______ ____
ROOT
ATOM      1  C1  UNL     1      16.417   4.339  16.699  0.00  0.00    +0.012 A 
ATOM      2  C2  UNL     1      15.386   4.903  15.939  0.00  0.00    +0.050 A 
ATOM      3  C3  UNL     1      14.577   4.071  15.177  0.00  0.00    +0.158 A 
ATOM      4  C4  UNL     1      14.795   2.696  15.170  0.00  0.00    +0.159 A 
ATOM      5  C5  UNL     1      15.816   2.129  15.921  0.00  0.00    +0.057 A 
ATOM      6  C6  UNL     1      16.635   2.950  16.710  0.00  0.00    -0.021 A 
ENDROOT
BRANCH   6   7
ATOM      7  C7  UNL     1      17.749   2.417  17.507  0.00  0.00    +0.015 C 
ATOM      8  C8  UNL     1      18.203   2.988  18.634  0.00  0.00    +0.092 C 
BRANCH   8   9
ATOM      9  C9  UNL     1      19.326   2.456  19.419  0.00  0.00    +0.330 C 
ATOM     10  O1  UNL     1      20.477   2.841  19.317  0.00  0.00    -0.246 OA
BRANCH   9  11
ATOM     11  O2  UNL     1      18.982   1.489  20.281  0.00  0.00    -0.478 OA
ATOM     12  H6  UNL     1      18.420   0.892  19.745  0.00  0.00    +0.295 HD
ENDBRANCH   9  11
ENDBRANCH   8   9
ENDBRANCH   6   7
BRANCH   4  13
ATOM     13  O3  UNL     1      14.001   1.886  14.409  0.00  0.00    -0.503 OA
ATOM     14  H7  UNL     1      13.108   2.278  14.483  0.00  0.00    +0.292 HD
ENDBRANCH   4  13
BRANCH   3  15
ATOM     15  O4  UNL     1      13.553   4.558  14.413  0.00  0.00    -0.503 OA
ATOM     16  H8  UNL     1      12.759   4.027  14.595  0.00  0.00    +0.292 HD
ENDBRANCH   3  15
TORSDOF 5
ENDMDL
