MODEL 1
REMARK VINA RESULT:    -4.762      0.000      0.000
REMARK INTER + INTRA:          -7.173
REMARK INTER:                  -6.571
REMARK INTRA:                  -0.602
REMARK UNBOUND:                -0.602
REMARK  Name = data/mahkota_dewa_dn/results/docking/ligands/pdb/Lariciresinol.pdb
REMARK  10 active torsions:
REMARK  status: ('A' for Active; 'I' for Inactive)
REMARK    1  A    between atoms: C1_1  and  O1_2
REMARK    2  A    between atoms: O1_2  and  C2_3
REMARK    3  A    between atoms: C3_4  and  O6_25
REMARK    4  A    between atoms: C6_7  and  C8_9
REMARK    5  A    between atoms: C10_12  and  C13_16
REMARK    6  A    between atoms: C11_13  and  C12_14
REMARK    7  A    between atoms: C12_14  and  O3_15
REMARK    8  A    between atoms: C15_18  and  O5_23
REMARK    9  A    between atoms: C16_19  and  O4_22
REMARK   10  A    between atoms: O5_23  and  C19_24
REMARK                            x       y       z     vdW  Elec       q    Type
REMARK                         _______ _______ _______ _____ _____    ______ ____
ROOT
ATOM      1  C8  UNL     1      13.491   9.998  12.018  0.00  0.00    +0.154 C 
ATOM      2  O2  UNL     1      14.306  10.052  10.828  0.00  0.00    -0.371 OA
ATOM      3  C9  UNL     1      13.530   9.573   9.718  0.00  0.00    +0.169 C 
ATOM      4  C10 UNL     1      12.091   9.389  10.197  0.00  0.00    +0.053 C 
ATOM      5  C11 UNL     1      12.296   9.093  11.687  0.00  0.00    +0.057 C 
ENDROOT
BRANCH   1  10
ATOM      6  C2  UNL     1      14.555   9.509  15.673  0.00  0.00    +0.162 A 
ATOM      7  C3  UNL     1      15.826   8.952  15.487  0.00  0.00    +0.158 A 
ATOM      8  C4  UNL     1      16.330   8.719  14.209  0.00  0.00    +0.049 A 
ATOM      9  C5  UNL     1      15.561   9.053  13.093  0.00  0.00    +0.010 A 
ATOM     10  C6  UNL     1      14.288   9.623  13.247  0.00  0.00    -0.015 A 
ATOM     11  C7  UNL     1      13.795   9.843  14.547  0.00  0.00    +0.055 A 
BRANCH   6  13
ATOM     12  C1  UNL     1      14.074  11.032  17.442  0.00  0.00    +0.277 C 
ATOM     13  O1  UNL     1      14.158   9.695  16.971  0.00  0.00    -0.491 OA
ENDBRANCH   6  13
BRANCH   7  14
ATOM     14  O6  UNL     1      16.581   8.628  16.584  0.00  0.00    -0.503 OA
ATOM     15  H22 UNL     1      16.014   8.621  17.369  0.00  0.00    +0.292 HD
ENDBRANCH   7  14
ENDBRANCH   1  10
BRANCH   4  16
ATOM     16  C13 UNL     1      11.152  10.574   9.996  0.00  0.00    -0.038 A 
ATOM     17  C14 UNL     1      10.649  10.805   8.698  0.00  0.00    +0.053 A 
ATOM     18  C15 UNL     1       9.772  11.863   8.435  0.00  0.00    +0.162 A 
ATOM     19  C16 UNL     1       9.392  12.696   9.493  0.00  0.00    +0.158 A 
ATOM     20  C17 UNL     1       9.871  12.481  10.783  0.00  0.00    +0.049 A 
ATOM     21  C18 UNL     1      10.745  11.423  11.033  0.00  0.00    +0.008 A 
BRANCH  19  22
ATOM     22  O4  UNL     1       8.532  13.735   9.252  0.00  0.00    -0.503 OA
ATOM     23  H18 UNL     1       8.383  13.808   8.298  0.00  0.00    +0.292 HD
ENDBRANCH  19  22
BRANCH  18  24
ATOM     24  O5  UNL     1       9.238  12.156   7.208  0.00  0.00    -0.491 OA
ATOM     25  C19 UNL     1       8.516  11.129   6.545  0.00  0.00    +0.277 C 
ENDBRANCH  18  24
ENDBRANCH   4  16
BRANCH   5  26
ATOM     26  C12 UNL     1      12.569   7.601  11.920  0.00  0.00    +0.162 C 
BRANCH  26  27
ATOM     27  O3  UNL     1      11.510   6.836  11.346  0.00  0.00    -0.395 OA
ATOM     28  H14 UNL     1      11.472   5.997  11.837  0.00  0.00    +0.209 HD
ENDBRANCH  26  27
ENDBRANCH   5  26
TORSDOF 8
ENDMDL
MODEL 2
REMARK VINA RESULT:    -4.616      1.879      3.267
REMARK INTER + INTRA:          -6.972
REMARK INTER:                  -6.448
REMARK INTRA:                  -0.524
REMARK UNBOUND:                -0.602
REMARK  Name = data/mahkota_dewa_dn/results/docking/ligands/pdb/Lariciresinol.pdb
REMARK  10 active torsions:
REMARK  status: ('A' for Active; 'I' for Inactive)
REMARK    1  A    between atoms: C1_1  and  O1_2
REMARK    2  A    between atoms: O1_2  and  C2_3
REMARK    3  A    between atoms: C3_4  and  O6_25
REMARK    4  A    between atoms: C6_7  and  C8_9
REMARK    5  A    between atoms: C10_12  and  C13_16
REMARK    6  A    between atoms: C11_13  and  C12_14
REMARK    7  A    between atoms: C12_14  and  O3_15
REMARK    8  A    between atoms: C15_18  and  O5_23
REMARK    9  A    between atoms: C16_19  and  O4_22
REMARK   10  A    between atoms: O5_23  and  C19_24
REMARK                            x       y       z     vdW  Elec       q    Type
REMARK                         _______ _______ _______ _____ _____    ______ ____
ROOT
ATOM      1  C8  UNL     1      12.815  10.207  10.236  0.00  0.00    +0.154 C 
ATOM      2  O2  UNL     1      13.069  11.596  10.534  0.00  0.00    -0.371 OA
ATOM      3  C9  UNL     1      13.549  12.241   9.343  0.00  0.00    +0.169 C 
ATOM      4  C10 UNL     1      13.407  11.253   8.187  0.00  0.00    +0.053 C 
ATOM      5  C11 UNL     1      13.530   9.907   8.912  0.00  0.00    +0.057 C 
ENDROOT
BRANCH   1  10
ATOM      6  C2  UNL     1      14.247   8.879  13.541  0.00  0.00    +0.162 A 
ATOM      7  C3  UNL     1      13.797   7.554  13.489  0.00  0.00    +0.158 A 
ATOM      8  C4  UNL     1      13.031   7.095  12.419  0.00  0.00    +0.049 A 
ATOM      9  C5  UNL     1      12.711   7.965  11.377  0.00  0.00    +0.010 A 
ATOM     10  C6  UNL     1      13.156   9.297  11.395  0.00  0.00    -0.015 A 
ATOM     11  C7  UNL     1      13.923   9.741  12.487  0.00  0.00    +0.055 A 
BRANCH   6  13
ATOM     12  C1  UNL     1      14.386  10.078  15.596  0.00  0.00    +0.277 C 
ATOM     13  O1  UNL     1      14.993   9.225  14.637  0.00  0.00    -0.491 OA
ENDBRANCH   6  13
BRANCH   7  14
ATOM     14  O6  UNL     1      14.115   6.699  14.512  0.00  0.00    -0.503 OA
ATOM     15  H22 UNL     1      14.765   6.053  14.195  0.00  0.00    +0.292 HD
ENDBRANCH   7  14
ENDBRANCH   1  10
BRANCH   4  16
ATOM     16  C13 UNL     1      12.113  11.329   7.384  0.00  0.00    -0.038 A 
ATOM     17  C14 UNL     1      10.953  11.790   8.042  0.00  0.00    +0.053 A 
ATOM     18  C15 UNL     1       9.730  11.902   7.371  0.00  0.00    +0.162 A 
ATOM     19  C16 UNL     1       9.675  11.549   6.017  0.00  0.00    +0.158 A 
ATOM     20  C17 UNL     1      10.810  11.099   5.346  0.00  0.00    +0.049 A 
ATOM     21  C18 UNL     1      12.023  10.992   6.026  0.00  0.00    +0.008 A 
BRANCH  19  22
ATOM     22  O4  UNL     1       8.486  11.655   5.346  0.00  0.00    -0.503 OA
ATOM     23  H18 UNL     1       7.757  11.597   5.981  0.00  0.00    +0.292 HD
ENDBRANCH  19  22
BRANCH  18  24
ATOM     24  O5  UNL     1       8.561  12.339   7.933  0.00  0.00    -0.491 OA
ATOM     25  C19 UNL     1       8.629  12.892   9.240  0.00  0.00    +0.277 C 
ENDBRANCH  18  24
ENDBRANCH   4  16
BRANCH   5  26
ATOM     26  C12 UNL     1      15.001   9.505   9.081  0.00  0.00    +0.162 C 
BRANCH  26  27
ATOM     27  O3  UNL     1      15.170   8.156   8.653  0.00  0.00    -0.395 OA
ATOM     28  H14 UNL     1      14.450   7.966   8.026  0.00  0.00    +0.209 HD
ENDBRANCH  26  27
ENDBRANCH   5  26
TORSDOF 8
ENDMDL
MODEL 3
REMARK VINA RESULT:    -4.552      2.018      7.912
REMARK INTER + INTRA:          -6.883
REMARK INTER:                  -6.166
REMARK INTRA:                  -0.718
REMARK UNBOUND:                -0.602
REMARK  Name = data/mahkota_dewa_dn/results/docking/ligands/pdb/Lariciresinol.pdb
REMARK  10 active torsions:
REMARK  status: ('A' for Active; 'I' for Inactive)
REMARK    1  A    between atoms: C1_1  and  O1_2
REMARK    2  A    between atoms: O1_2  and  C2_3
REMARK    3  A    between atoms: C3_4  and  O6_25
REMARK    4  A    between atoms: C6_7  and  C8_9
REMARK    5  A    between atoms: C10_12  and  C13_16
REMARK    6  A    between atoms: C11_13  and  C12_14
REMARK    7  A    between atoms: C12_14  and  O3_15
REMARK    8  A    between atoms: C15_18  and  O5_23
REMARK    9  A    between atoms: C16_19  and  O4_22
REMARK   10  A    between atoms: O5_23  and  C19_24
REMARK                            x       y       z     vdW  Elec       q    Type
REMARK                         _______ _______ _______ _____ _____    ______ ____
ROOT
ATOM      1  C8  UNL     1      12.988  10.182   8.866  0.00  0.00    +0.154 C 
ATOM      2  O2  UNL     1      14.103   9.623   8.141  0.00  0.00    -0.371 OA
ATOM      3  C9  UNL     1      15.314   9.935   8.848  0.00  0.00    +0.169 C 
ATOM      4  C10 UNL     1      14.926  10.558  10.188  0.00  0.00    +0.053 C 
ATOM      5  C11 UNL     1      13.576  11.202   9.852  0.00  0.00    +0.057 C 
ENDROOT
BRANCH   1  10
ATOM      6  C2  UNL     1       9.692  11.672   7.582  0.00  0.00    +0.162 A 
ATOM      7  C3  UNL     1       9.907  11.592   6.201  0.00  0.00    +0.158 A 
ATOM      8  C4  UNL     1      11.098  11.085   5.686  0.00  0.00    +0.049 A 
ATOM      9  C5  UNL     1      12.093  10.640   6.558  0.00  0.00    +0.010 A 
ATOM     10  C6  UNL     1      11.902  10.697   7.948  0.00  0.00    -0.015 A 
ATOM     11  C7  UNL     1      10.694  11.219   8.447  0.00  0.00    +0.055 A 
BRANCH   6  13
ATOM     12  C1  UNL     1       8.485  13.051   9.106  0.00  0.00    +0.277 C 
ATOM     13  O1  UNL     1       8.486  12.186   7.980  0.00  0.00    -0.491 OA
ENDBRANCH   6  13
BRANCH   7  14
ATOM     14  O6  UNL     1       8.928  12.026   5.345  0.00  0.00    -0.503 OA
ATOM     15  H22 UNL     1       8.782  11.353   4.663  0.00  0.00    +0.292 HD
ENDBRANCH   7  14
ENDBRANCH   1  10
BRANCH   4  16
ATOM     16  C13 UNL     1      14.801   9.601  11.369  0.00  0.00    -0.038 A 
ATOM     17  C14 UNL     1      14.651  10.158  12.657  0.00  0.00    +0.053 A 
ATOM     18  C15 UNL     1      14.515   9.348  13.789  0.00  0.00    +0.162 A 
ATOM     19  C16 UNL     1      14.525   7.958  13.623  0.00  0.00    +0.158 A 
ATOM     20  C17 UNL     1      14.664   7.388  12.360  0.00  0.00    +0.049 A 
ATOM     21  C18 UNL     1      14.798   8.206  11.238  0.00  0.00    +0.008 A 
BRANCH  19  22
ATOM     22  O4  UNL     1      14.391   7.151  14.722  0.00  0.00    -0.503 OA
ATOM     23  H18 UNL     1      14.750   7.608  15.497  0.00  0.00    +0.292 HD
ENDBRANCH  19  22
BRANCH  18  24
ATOM     24  O5  UNL     1      14.365   9.806  15.071  0.00  0.00    -0.491 OA
ATOM     25  C19 UNL     1      13.047  10.093  15.514  0.00  0.00    +0.277 C 
ENDBRANCH  18  24
ENDBRANCH   4  16
BRANCH   5  26
ATOM     26  C12 UNL     1      13.768  12.601   9.252  0.00  0.00    +0.162 C 
BRANCH  26  27
ATOM     27  O3  UNL     1      12.919  13.523   9.933  0.00  0.00    -0.395 OA
ATOM     28  H14 UNL     1      12.350  13.933   9.259  0.00  0.00    +0.209 HD
ENDBRANCH  26  27
ENDBRANCH   5  26
TORSDOF 8
ENDMDL
MODEL 4
REMARK VINA RESULT:    -4.484      1.666      7.966
REMARK INTER + INTRA:          -6.789
REMARK INTER:                  -5.920
REMARK INTRA:                  -0.870
REMARK UNBOUND:                -0.602
REMARK  Name = data/mahkota_dewa_dn/results/docking/ligands/pdb/Lariciresinol.pdb
REMARK  10 active torsions:
REMARK  status: ('A' for Active; 'I' for Inactive)
REMARK    1  A    between atoms: C1_1  and  O1_2
REMARK    2  A    between atoms: O1_2  and  C2_3
REMARK    3  A    between atoms: C3_4  and  O6_25
REMARK    4  A    between atoms: C6_7  and  C8_9
REMARK    5  A    between atoms: C10_12  and  C13_16
REMARK    6  A    between atoms: C11_13  and  C12_14
REMARK    7  A    between atoms: C12_14  and  O3_15
REMARK    8  A    between atoms: C15_18  and  O5_23
REMARK    9  A    between atoms: C16_19  and  O4_22
REMARK   10  A    between atoms: O5_23  and  C19_24
REMARK                            x       y       z     vdW  Elec       q    Type
REMARK                         _______ _______ _______ _____ _____    ______ ____
ROOT
ATOM      1  C8  UNL     1      12.681  10.230  11.702  0.00  0.00    +0.154 C 
ATOM      2  O2  UNL     1      13.421   9.206  11.005  0.00  0.00    -0.371 OA
ATOM      3  C9  UNL     1      14.799   9.283  11.403  0.00  0.00    +0.169 C 
ATOM      4  C10 UNL     1      14.898  10.283  12.554  0.00  0.00    +0.053 C 
ATOM      5  C11 UNL     1      13.719  11.216  12.257  0.00  0.00    +0.057 C 
ENDROOT
BRANCH   1  10
ATOM      6  C2  UNL     1      10.450  11.109   8.705  0.00  0.00    +0.162 A 
ATOM      7  C3  UNL     1       9.567  12.011   9.311  0.00  0.00    +0.158 A 
ATOM      8  C4  UNL     1       9.672  12.321  10.665  0.00  0.00    +0.049 A 
ATOM      9  C5  UNL     1      10.678  11.731  11.432  0.00  0.00    +0.010 A 
ATOM     10  C6  UNL     1      11.585  10.831  10.850  0.00  0.00    -0.015 A 
ATOM     11  C7  UNL     1      11.457  10.527   9.482  0.00  0.00    +0.055 A 
BRANCH   6  13
ATOM     12  C1  UNL     1      11.406  10.870   6.535  0.00  0.00    +0.277 C 
ATOM     13  O1  UNL     1      10.257  10.876   7.368  0.00  0.00    -0.491 OA
ENDBRANCH   6  13
BRANCH   7  14
ATOM     14  O6  UNL     1       8.581  12.592   8.557  0.00  0.00    -0.503 OA
ATOM     15  H22 UNL     1       8.933  12.795   7.677  0.00  0.00    +0.292 HD
ENDBRANCH   7  14
ENDBRANCH   1  10
BRANCH   4  16
ATOM     16  C13 UNL     1      14.802   9.707  13.963  0.00  0.00    -0.038 A 
ATOM     17  C14 UNL     1      15.272   8.393  14.173  0.00  0.00    +0.053 A 
ATOM     18  C15 UNL     1      15.232   7.799  15.440  0.00  0.00    +0.162 A 
ATOM     19  C16 UNL     1      14.716   8.539  16.510  0.00  0.00    +0.158 A 
ATOM     20  C17 UNL     1      14.254   9.840  16.326  0.00  0.00    +0.049 A 
ATOM     21  C18 UNL     1      14.300  10.422  15.059  0.00  0.00    +0.008 A 
BRANCH  19  22
ATOM     22  O4  UNL     1      14.672   7.972  17.757  0.00  0.00    -0.503 OA
ATOM     23  H18 UNL     1      15.438   8.272  18.268  0.00  0.00    +0.292 HD
ENDBRANCH  19  22
BRANCH  18  24
ATOM     24  O5  UNL     1      15.666   6.533  15.729  0.00  0.00    -0.491 OA
ATOM     25  C19 UNL     1      15.094   5.461  14.994  0.00  0.00    +0.277 C 
ENDBRANCH  18  24
ENDBRANCH   4  16
BRANCH   5  26
ATOM     26  C12 UNL     1      14.122  12.313  11.264  0.00  0.00    +0.162 C 
BRANCH  26  27
ATOM     27  O3  UNL     1      13.712  13.581  11.773  0.00  0.00    -0.395 OA
ATOM     28  H14 UNL     1      14.168  14.258  11.243  0.00  0.00    +0.209 HD
ENDBRANCH  26  27
ENDBRANCH   5  26
TORSDOF 8
ENDMDL
MODEL 5
REMARK VINA RESULT:    -4.466      1.601      7.988
REMARK INTER + INTRA:          -6.765
REMARK INTER:                  -6.052
REMARK INTRA:                  -0.713
REMARK UNBOUND:                -0.602
REMARK  Name = data/mahkota_dewa_dn/results/docking/ligands/pdb/Lariciresinol.pdb
REMARK  10 active torsions:
REMARK  status: ('A' for Active; 'I' for Inactive)
REMARK    1  A    between atoms: C1_1  and  O1_2
REMARK    2  A    between atoms: O1_2  and  C2_3
REMARK    3  A    between atoms: C3_4  and  O6_25
REMARK    4  A    between atoms: C6_7  and  C8_9
REMARK    5  A    between atoms: C10_12  and  C13_16
REMARK    6  A    between atoms: C11_13  and  C12_14
REMARK    7  A    between atoms: C12_14  and  O3_15
REMARK    8  A    between atoms: C15_18  and  O5_23
REMARK    9  A    between atoms: C16_19  and  O4_22
REMARK   10  A    between atoms: O5_23  and  C19_24
REMARK                            x       y       z     vdW  Elec       q    Type
REMARK                         _______ _______ _______ _____ _____    ______ ____
ROOT
ATOM      1  C8  UNL     1      12.644   9.774  10.930  0.00  0.00    +0.154 C 
ATOM      2  O2  UNL     1      13.264   9.054   9.843  0.00  0.00    -0.371 OA
ATOM      3  C9  UNL     1      14.670   8.936  10.114  0.00  0.00    +0.169 C 
ATOM      4  C10 UNL     1      14.917   9.439  11.535  0.00  0.00    +0.053 C 
ATOM      5  C11 UNL     1      13.780  10.453  11.707  0.00  0.00    +0.057 C 
ENDROOT
BRANCH   1  10
ATOM      6  C2  UNL     1      10.180  11.669   8.677  0.00  0.00    +0.162 A 
ATOM      7  C3  UNL     1       9.485  12.410   9.641  0.00  0.00    +0.158 A 
ATOM      8  C4  UNL     1       9.789  12.292  10.996  0.00  0.00    +0.049 A 
ATOM      9  C5  UNL     1      10.807  11.429  11.402  0.00  0.00    +0.010 A 
ATOM     10  C6  UNL     1      11.528  10.681  10.459  0.00  0.00    -0.015 A 
ATOM     11  C7  UNL     1      11.202  10.809   9.096  0.00  0.00    +0.055 A 
BRANCH   6  13
ATOM     12  C1  UNL     1       8.829  10.975   6.840  0.00  0.00    +0.277 C 
ATOM     13  O1  UNL     1       9.802  11.861   7.374  0.00  0.00    -0.491 OA
ENDBRANCH   6  13
BRANCH   7  14
ATOM     14  O6  UNL     1       8.488  13.260   9.240  0.00  0.00    -0.503 OA
ATOM     15  H22 UNL     1       7.749  12.740   8.889  0.00  0.00    +0.292 HD
ENDBRANCH   7  14
ENDBRANCH   1  10
BRANCH   4  16
ATOM     16  C13 UNL     1      14.889   8.389  12.641  0.00  0.00    -0.038 A 
ATOM     17  C14 UNL     1      15.254   8.791  13.943  0.00  0.00    +0.053 A 
ATOM     18  C15 UNL     1      15.240   7.891  15.015  0.00  0.00    +0.162 A 
ATOM     19  C16 UNL     1      14.848   6.569  14.773  0.00  0.00    +0.158 A 
ATOM     20  C17 UNL     1      14.477   6.153  13.496  0.00  0.00    +0.049 A 
ATOM     21  C18 UNL     1      14.494   7.060  12.436  0.00  0.00    +0.008 A 
BRANCH  19  22
ATOM     22  O4  UNL     1      14.828   5.676  15.811  0.00  0.00    -0.503 OA
ATOM     23  H18 UNL     1      15.544   5.890  16.428  0.00  0.00    +0.292 HD
ENDBRANCH  19  22
BRANCH  18  24
ATOM     24  O5  UNL     1      15.579   8.198  16.305  0.00  0.00    -0.491 OA
ATOM     25  C19 UNL     1      14.783   9.163  16.979  0.00  0.00    +0.277 C 
ENDBRANCH  18  24
ENDBRANCH   4  16
BRANCH   5  26
ATOM     26  C12 UNL     1      14.177  11.825  11.148  0.00  0.00    +0.162 C 
BRANCH  26  27
ATOM     27  O3  UNL     1      13.945  12.822  12.141  0.00  0.00    -0.395 OA
ATOM     28  H14 UNL     1      13.401  13.513  11.725  0.00  0.00    +0.209 HD
ENDBRANCH  26  27
ENDBRANCH   5  26
TORSDOF 8
ENDMDL
MODEL 6
REMARK VINA RESULT:    -4.437      5.981      8.948
REMARK INTER + INTRA:          -6.725
REMARK INTER:                  -5.845
REMARK INTRA:                  -0.880
REMARK UNBOUND:                -0.602
REMARK  Name = data/mahkota_dewa_dn/results/docking/ligands/pdb/Lariciresinol.pdb
REMARK  10 active torsions:
REMARK  status: ('A' for Active; 'I' for Inactive)
REMARK    1  A    between atoms: C1_1  and  O1_2
REMARK    2  A    between atoms: O1_2  and  C2_3
REMARK    3  A    between atoms: C3_4  and  O6_25
REMARK    4  A    between atoms: C6_7  and  C8_9
REMARK    5  A    between atoms: C10_12  and  C13_16
REMARK    6  A    between atoms: C11_13  and  C12_14
REMARK    7  A    between atoms: C12_14  and  O3_15
REMARK    8  A    between atoms: C15_18  and  O5_23
REMARK    9  A    between atoms: C16_19  and  O4_22
REMARK   10  A    between atoms: O5_23  and  C19_24
REMARK                            x       y       z     vdW  Elec       q    Type
REMARK                         _______ _______ _______ _____ _____    ______ ____
ROOT
ATOM      1  C8  UNL     1      15.136   8.106  16.364  0.00  0.00    +0.154 C 
ATOM      2  O2  UNL     1      14.741   8.346  14.997  0.00  0.00    -0.371 OA
ATOM      3  C9  UNL     1      15.638   7.636  14.128  0.00  0.00    +0.169 C 
ATOM      4  C10 UNL     1      16.526   6.748  14.998  0.00  0.00    +0.053 C 
ATOM      5  C11 UNL     1      16.560   7.536  16.313  0.00  0.00    +0.057 C 
ENDROOT
BRANCH   1  10
ATOM      6  C2  UNL     1      14.504  11.708  17.533  0.00  0.00    +0.162 A 
ATOM      7  C3  UNL     1      14.633  11.544  18.917  0.00  0.00    +0.158 A 
ATOM      8  C4  UNL     1      14.901  10.294  19.472  0.00  0.00    +0.049 A 
ATOM      9  C5  UNL     1      15.052   9.186  18.637  0.00  0.00    +0.010 A 
ATOM     10  C6  UNL     1      14.939   9.321  17.244  0.00  0.00    -0.015 A 
ATOM     11  C7  UNL     1      14.662  10.590  16.705  0.00  0.00    +0.055 A 
BRANCH   6  13
ATOM     12  C1  UNL     1      15.253  13.632  16.343  0.00  0.00    +0.277 C 
ATOM     13  O1  UNL     1      14.241  12.979  17.094  0.00  0.00    -0.491 OA
ENDBRANCH   6  13
BRANCH   7  14
ATOM     14  O6  UNL     1      14.487  12.632  19.737  0.00  0.00    -0.503 OA
ATOM     15  H22 UNL     1      15.229  12.662  20.360  0.00  0.00    +0.292 HD
ENDBRANCH   7  14
ENDBRANCH   1  10
BRANCH   4  16
ATOM     16  C13 UNL     1      16.043   5.319  15.225  0.00  0.00    -0.038 A 
ATOM     17  C14 UNL     1      16.733   4.530  16.168  0.00  0.00    +0.053 A 
ATOM     18  C15 UNL     1      16.342   3.215  16.444  0.00  0.00    +0.162 A 
ATOM     19  C16 UNL     1      15.239   2.689  15.763  0.00  0.00    +0.158 A 
ATOM     20  C17 UNL     1      14.538   3.453  14.833  0.00  0.00    +0.049 A 
ATOM     21  C18 UNL     1      14.937   4.763  14.568  0.00  0.00    +0.008 A 
BRANCH  19  22
ATOM     22  O4  UNL     1      14.842   1.403  16.023  0.00  0.00    -0.503 OA
ATOM     23  H18 UNL     1      14.711   1.299  16.977  0.00  0.00    +0.292 HD
ENDBRANCH  19  22
BRANCH  18  24
ATOM     24  O5  UNL     1      16.956   2.383  17.342  0.00  0.00    -0.491 OA
ATOM     25  C19 UNL     1      18.077   2.895  18.047  0.00  0.00    +0.277 C 
ENDBRANCH  18  24
ENDBRANCH   4  16
BRANCH   5  26
ATOM     26  C12 UNL     1      17.655   8.609  16.284  0.00  0.00    +0.162 C 
BRANCH  26  27
ATOM     27  O3  UNL     1      18.915   7.988  16.041  0.00  0.00    -0.395 OA
ATOM     28  H14 UNL     1      18.948   7.191  16.600  0.00  0.00    +0.209 HD
ENDBRANCH  26  27
ENDBRANCH   5  26
TORSDOF 8
ENDMDL
MODEL 7
REMARK VINA RESULT:    -4.390      4.050      5.445
REMARK INTER + INTRA:          -6.659
REMARK INTER:                  -6.024
REMARK INTRA:                  -0.635
REMARK UNBOUND:                -0.602
REMARK  Name = data/mahkota_dewa_dn/results/docking/ligands/pdb/Lariciresinol.pdb
REMARK  10 active torsions:
REMARK  status: ('A' for Active; 'I' for Inactive)
REMARK    1  A    between atoms: C1_1  and  O1_2
REMARK    2  A    between atoms: O1_2  and  C2_3
REMARK    3  A    between atoms: C3_4  and  O6_25
REMARK    4  A    between atoms: C6_7  and  C8_9
REMARK    5  A    between atoms: C10_12  and  C13_16
REMARK    6  A    between atoms: C11_13  and  C12_14
REMARK    7  A    between atoms: C12_14  and  O3_15
REMARK    8  A    between atoms: C15_18  and  O5_23
REMARK    9  A    between atoms: C16_19  and  O4_22
REMARK   10  A    between atoms: O5_23  and  C19_24
REMARK                            x       y       z     vdW  Elec       q    Type
REMARK                         _______ _______ _______ _____ _____    ______ ____
ROOT
ATOM      1  C8  UNL     1      15.311   6.186  13.932  0.00  0.00    +0.154 C 
ATOM      2  O2  UNL     1      16.509   6.964  14.136  0.00  0.00    -0.371 OA
ATOM      3  C9  UNL     1      16.784   7.706  12.937  0.00  0.00    +0.169 C 
ATOM      4  C10 UNL     1      15.592   7.535  11.997  0.00  0.00    +0.053 C 
ATOM      5  C11 UNL     1      15.060   6.160  12.418  0.00  0.00    +0.057 C 
ENDROOT
BRANCH   1  10
ATOM      6  C2  UNL     1      16.538   3.188  15.991  0.00  0.00    +0.162 A 
ATOM      7  C3  UNL     1      15.458   2.313  15.821  0.00  0.00    +0.158 A 
ATOM      8  C4  UNL     1      14.342   2.684  15.072  0.00  0.00    +0.049 A 
ATOM      9  C5  UNL     1      14.302   3.944  14.473  0.00  0.00    +0.010 A 
ATOM     10  C6  UNL     1      15.374   4.838  14.616  0.00  0.00    -0.015 A 
ATOM     11  C7  UNL     1      16.488   4.446  15.382  0.00  0.00    +0.055 A 
BRANCH   6  13
ATOM     12  C1  UNL     1      17.774   3.305  18.025  0.00  0.00    +0.277 C 
ATOM     13  O1  UNL     1      17.583   2.722  16.745  0.00  0.00    -0.491 OA
ENDBRANCH   6  13
BRANCH   7  14
ATOM     14  O6  UNL     1      15.500   1.075  16.407  0.00  0.00    -0.503 OA
ATOM     15  H22 UNL     1      16.233   0.568  16.024  0.00  0.00    +0.292 HD
ENDBRANCH   7  14
ENDBRANCH   1  10
BRANCH   4  16
ATOM     16  C13 UNL     1      14.501   8.597  12.084  0.00  0.00    -0.038 A 
ATOM     17  C14 UNL     1      13.546   8.649  11.047  0.00  0.00    +0.053 A 
ATOM     18  C15 UNL     1      12.505   9.585  11.061  0.00  0.00    +0.162 A 
ATOM     19  C16 UNL     1      12.423  10.478  12.136  0.00  0.00    +0.158 A 
ATOM     20  C17 UNL     1      13.351  10.439  13.174  0.00  0.00    +0.049 A 
ATOM     21  C18 UNL     1      14.384   9.501  13.149  0.00  0.00    +0.008 A 
BRANCH  19  22
ATOM     22  O4  UNL     1      11.409  11.399  12.166  0.00  0.00    -0.503 OA
ATOM     23  H18 UNL     1      11.515  12.011  11.422  0.00  0.00    +0.292 HD
ENDBRANCH  19  22
BRANCH  18  24
ATOM     24  O5  UNL     1      11.539   9.703  10.098  0.00  0.00    -0.491 OA
ATOM     25  C19 UNL     1      11.853  10.475   8.948  0.00  0.00    +0.277 C 
ENDBRANCH  18  24
ENDBRANCH   4  16
BRANCH   5  26
ATOM     26  C12 UNL     1      15.803   5.035  11.687  0.00  0.00    +0.162 C 
BRANCH  26  27
ATOM     27  O3  UNL     1      15.712   5.249  10.280  0.00  0.00    -0.395 OA
ATOM     28  H14 UNL     1      16.426   5.867  10.043  0.00  0.00    +0.209 HD
ENDBRANCH  26  27
ENDBRANCH   5  26
TORSDOF 8
ENDMDL
MODEL 8
REMARK VINA RESULT:    -4.207      8.437     12.507
REMARK INTER + INTRA:          -6.407
REMARK INTER:                  -5.529
REMARK INTRA:                  -0.878
REMARK UNBOUND:                -0.602
REMARK  Name = data/mahkota_dewa_dn/results/docking/ligands/pdb/Lariciresinol.pdb
REMARK  10 active torsions:
REMARK  status: ('A' for Active; 'I' for Inactive)
REMARK    1  A    between atoms: C1_1  and  O1_2
REMARK    2  A    between atoms: O1_2  and  C2_3
REMARK    3  A    between atoms: C3_4  and  O6_25
REMARK    4  A    between atoms: C6_7  and  C8_9
REMARK    5  A    between atoms: C10_12  and  C13_16
REMARK    6  A    between atoms: C11_13  and  C12_14
REMARK    7  A    between atoms: C12_14  and  O3_15
REMARK    8  A    between atoms: C15_18  and  O5_23
REMARK    9  A    between atoms: C16_19  and  O4_22
REMARK   10  A    between atoms: O5_23  and  C19_24
REMARK                            x       y       z     vdW  Elec       q    Type
REMARK                         _______ _______ _______ _____ _____    ______ ____
ROOT
ATOM      1  C8  UNL     1      17.030   2.766  14.325  0.00  0.00    +0.154 C 
ATOM      2  O2  UNL     1      17.297   4.167  14.550  0.00  0.00    -0.371 OA
ATOM      3  C9  UNL     1      16.752   4.539  15.825  0.00  0.00    +0.169 C 
ATOM      4  C10 UNL     1      16.285   3.264  16.526  0.00  0.00    +0.053 C 
ATOM      5  C11 UNL     1      15.945   2.362  15.334  0.00  0.00    +0.057 C 
ENDROOT
BRANCH   1  10
ATOM      6  C2  UNL     1      16.461   0.880  11.031  0.00  0.00    +0.162 A 
ATOM      7  C3  UNL     1      16.225   1.957  10.168  0.00  0.00    +0.158 A 
ATOM      8  C4  UNL     1      16.230   3.269  10.636  0.00  0.00    +0.049 A 
ATOM      9  C5  UNL     1      16.482   3.519  11.986  0.00  0.00    +0.010 A 
ATOM     10  C6  UNL     1      16.733   2.461  12.874  0.00  0.00    -0.015 A 
ATOM     11  C7  UNL     1      16.717   1.143  12.381  0.00  0.00    +0.055 A 
BRANCH   6  13
ATOM     12  C1  UNL     1      17.577  -1.190  10.645  0.00  0.00    +0.277 C 
ATOM     13  O1  UNL     1      16.434  -0.368  10.466  0.00  0.00    -0.491 OA
ENDBRANCH   6  13
BRANCH   7  14
ATOM     14  O6  UNL     1      15.980   1.711   8.842  0.00  0.00    -0.503 OA
ATOM     15  H22 UNL     1      16.115   2.528   8.338  0.00  0.00    +0.292 HD
ENDBRANCH   7  14
ENDBRANCH   1  10
BRANCH   4  16
ATOM     16  C13 UNL     1      17.293   2.593  17.454  0.00  0.00    -0.038 A 
ATOM     17  C14 UNL     1      17.292   1.184  17.521  0.00  0.00    +0.053 A 
ATOM     18  C15 UNL     1      18.194   0.492  18.337  0.00  0.00    +0.162 A 
ATOM     19  C16 UNL     1      19.113   1.230  19.093  0.00  0.00    +0.158 A 
ATOM     20  C17 UNL     1      19.136   2.622  19.036  0.00  0.00    +0.049 A 
ATOM     21  C18 UNL     1      18.231   3.299  18.218  0.00  0.00    +0.008 A 
BRANCH  19  22
ATOM     22  O4  UNL     1      20.004   0.568  19.896  0.00  0.00    -0.503 OA
ATOM     23  H18 UNL     1      19.515   0.012  20.520  0.00  0.00    +0.292 HD
ENDBRANCH  19  22
BRANCH  18  24
ATOM     24  O5  UNL     1      18.260  -0.870  18.460  0.00  0.00    -0.491 OA
ATOM     25  C19 UNL     1      18.866  -1.594  17.400  0.00  0.00    +0.277 C 
ENDBRANCH  18  24
ENDBRANCH   4  16
BRANCH   5  26
ATOM     26  C12 UNL     1      14.516   2.619  14.839  0.00  0.00    +0.162 C 
BRANCH  26  27
ATOM     27  O3  UNL     1      13.591   2.034  15.754  0.00  0.00    -0.395 OA
ATOM     28  H14 UNL     1      12.737   1.975  15.292  0.00  0.00    +0.209 HD
ENDBRANCH  26  27
ENDBRANCH   5  26
TORSDOF 8
ENDMDL
MODEL 9
REMARK VINA RESULT:    -4.154      6.964     10.526
REMARK INTER + INTRA:          -6.335
REMARK INTER:                  -5.473
REMARK INTRA:                  -0.862
REMARK UNBOUND:                -0.602
REMARK  Name = data/mahkota_dewa_dn/results/docking/ligands/pdb/Lariciresinol.pdb
REMARK  10 active torsions:
REMARK  status: ('A' for Active; 'I' for Inactive)
REMARK    1  A    between atoms: C1_1  and  O1_2
REMARK    2  A    between atoms: O1_2  and  C2_3
REMARK    3  A    between atoms: C3_4  and  O6_25
REMARK    4  A    between atoms: C6_7  and  C8_9
REMARK    5  A    between atoms: C10_12  and  C13_16
REMARK    6  A    between atoms: C11_13  and  C12_14
REMARK    7  A    between atoms: C12_14  and  O3_15
REMARK    8  A    between atoms: C15_18  and  O5_23
REMARK    9  A    between atoms: C16_19  and  O4_22
REMARK   10  A    between atoms: O5_23  and  C19_24
REMARK                            x       y       z     vdW  Elec       q    Type
REMARK                         _______ _______ _______ _____ _____    ______ ____
ROOT
ATOM      1  C8  UNL     1      16.323   3.649  14.139  0.00  0.00    +0.154 C 
ATOM      2  O2  UNL     1      15.626   4.583  13.288  0.00  0.00    -0.371 OA
ATOM      3  C9  UNL     1      14.641   5.274  14.074  0.00  0.00    +0.169 C 
ATOM      4  C10 UNL     1      14.859   4.893  15.537  0.00  0.00    +0.053 C 
ATOM      5  C11 UNL     1      15.470   3.493  15.406  0.00  0.00    +0.057 C 
ENDROOT
BRANCH   1  10
ATOM      6  C2  UNL     1      16.446   0.836  11.530  0.00  0.00    +0.162 A 
ATOM      7  C3  UNL     1      17.344  -0.039  12.154  0.00  0.00    +0.158 A 
ATOM      8  C4  UNL     1      17.916   0.274  13.385  0.00  0.00    +0.049 A 
ATOM      9  C5  UNL     1      17.586   1.475  14.014  0.00  0.00    +0.010 A 
ATOM     10  C6  UNL     1      16.681   2.368  13.419  0.00  0.00    -0.015 A 
ATOM     11  C7  UNL     1      16.120   2.036  12.172  0.00  0.00    +0.055 A 
BRANCH   6  13
ATOM     12  C1  UNL     1      16.158   1.281   9.206  0.00  0.00    +0.277 C 
ATOM     13  O1  UNL     1      15.942   0.430  10.322  0.00  0.00    -0.491 OA
ENDBRANCH   6  13
BRANCH   7  14
ATOM     14  O6  UNL     1      17.665  -1.220  11.537  0.00  0.00    -0.503 OA
ATOM     15  H22 UNL     1      18.203  -1.757  12.139  0.00  0.00    +0.292 HD
ENDBRANCH   7  14
ENDBRANCH   1  10
BRANCH   4  16
ATOM     16  C13 UNL     1      15.764   5.813  16.350  0.00  0.00    -0.038 A 
ATOM     17  C14 UNL     1      16.599   5.227  17.324  0.00  0.00    +0.053 A 
ATOM     18  C15 UNL     1      17.468   6.001  18.101  0.00  0.00    +0.162 A 
ATOM     19  C16 UNL     1      17.499   7.385  17.891  0.00  0.00    +0.158 A 
ATOM     20  C17 UNL     1      16.688   7.984  16.930  0.00  0.00    +0.049 A 
ATOM     21  C18 UNL     1      15.827   7.200  16.161  0.00  0.00    +0.008 A 
BRANCH  19  22
ATOM     22  O4  UNL     1      18.345   8.157  18.643  0.00  0.00    -0.503 OA
ATOM     23  H18 UNL     1      18.543   8.973  18.159  0.00  0.00    +0.292 HD
ENDBRANCH  19  22
BRANCH  18  24
ATOM     24  O5  UNL     1      18.309   5.513  19.064  0.00  0.00    -0.491 OA
ATOM     25  C19 UNL     1      17.842   4.429  19.853  0.00  0.00    +0.277 C 
ENDBRANCH  18  24
ENDBRANCH   4  16
BRANCH   5  26
ATOM     26  C12 UNL     1      14.376   2.424  15.286  0.00  0.00    +0.162 C 
BRANCH  26  27
ATOM     27  O3  UNL     1      14.632   1.383  16.227  0.00  0.00    -0.395 OA
ATOM     28  H14 UNL     1      14.494   1.764  17.112  0.00  0.00    +0.209 HD
ENDBRANCH  26  27
ENDBRANCH   5  26
TORSDOF 8
ENDMDL
