MODEL 1
REMARK VINA RESULT:    -5.336      0.000      0.000
REMARK INTER + INTRA:          -8.019
REMARK INTER:                  -7.208
REMARK INTRA:                  -0.812
REMARK UNBOUND:                -0.812
REMARK  Name = data/mahkota_dewa_dn/results/docking/ligands/pdb/264-trihydroxy-4-methoxybenzophenone.pdb
REMARK  8 active torsions:
REMARK  status: ('A' for Active; 'I' for Inactive)
REMARK    1  A    between atoms: C1_1  and  O1_2
REMARK    2  A    between atoms: O1_2  and  C2_3
REMARK    3  A    between atoms: C8_10  and  C9_12
REMARK    4  A    between atoms: C12_15  and  O4_18
REMARK    5  A    between atoms: O4_18  and  C15_19
REMARK    6  A    between atoms: C15_19  and  C16_20
REMARK    7  A    between atoms: C22_26  and  O5_28
REMARK    8  A    between atoms: O5_28  and  C24_29
REMARK                            x       y       z     vdW  Elec       q    Type
REMARK                         _______ _______ _______ _____ _____    ______ ____
ROOT
ATOM      1  C2  UNL     1      17.970   4.074  19.116  0.00  0.00    +0.127 A 
ATOM      2  C3  UNL     1      17.529   5.392  19.171  0.00  0.00    +0.092 A 
ATOM      3  C4  UNL     1      16.763   5.914  18.127  0.00  0.00    +0.139 A 
ATOM      4  C5  UNL     1      16.455   5.136  17.002  0.00  0.00    +0.101 A 
ATOM      5  C6  UNL     1      15.694   5.796  15.902  0.00  0.00    +0.174 C 
ATOM      6  O2  UNL     1      15.279   5.200  14.914  0.00  0.00    -0.292 OA
ATOM      7  C7  UNL     1      15.486   7.278  16.038  0.00  0.00    +0.129 C 
ATOM      8  C8  UNL     1      15.230   7.574  17.504  0.00  0.00    +0.211 C 
ATOM      9  O3  UNL     1      16.376   7.221  18.291  0.00  0.00    -0.483 OA
ATOM     10  C22 UNL     1      16.895   3.802  16.937  0.00  0.00    +0.138 A 
ATOM     11  C23 UNL     1      17.647   3.288  18.004  0.00  0.00    +0.092 A 
ENDROOT
BRANCH   8  12
ATOM     12  C9  UNL     1      14.933   9.048  17.712  0.00  0.00    -0.007 A 
ATOM     13  C10 UNL     1      15.167   9.674  18.945  0.00  0.00    +0.011 A 
ATOM     14  C11 UNL     1      14.914  11.040  19.118  0.00  0.00    +0.046 A 
ATOM     15  C12 UNL     1      14.423  11.802  18.060  0.00  0.00    +0.121 A 
ATOM     16  C13 UNL     1      14.206  11.189  16.824  0.00  0.00    +0.046 A 
ATOM     17  C14 UNL     1      14.456   9.825  16.648  0.00  0.00    +0.011 A 
BRANCH  15  18
ATOM     18  O4  UNL     1      14.147  13.141  18.088  0.00  0.00    -0.487 OA
BRANCH  18  19
ATOM     19  C15 UNL     1      12.898  13.561  18.645  0.00  0.00    +0.264 C 
BRANCH  19  20
ATOM     20  C16 UNL     1      13.017  14.743  19.582  0.00  0.00    -0.010 A 
ATOM     21  C17 UNL     1      13.445  14.585  20.908  0.00  0.00    +0.007 A 
ATOM     22  C18 UNL     1      13.575  15.692  21.749  0.00  0.00    +0.000 A 
ATOM     23  C19 UNL     1      13.290  16.969  21.271  0.00  0.00    +0.000 A 
ATOM     24  C20 UNL     1      12.880  17.143  19.951  0.00  0.00    +0.000 A 
ATOM     25  C21 UNL     1      12.749  16.037  19.109  0.00  0.00    +0.007 A 
ENDBRANCH  19  20
ENDBRANCH  18  19
ENDBRANCH  15  18
ENDBRANCH   8  12
BRANCH   1  27
ATOM     26  C1  UNL     1      19.353   2.222  19.682  0.00  0.00    +0.277 C 
ATOM     27  O1  UNL     1      18.715   3.435  20.068  0.00  0.00    -0.495 OA
ENDBRANCH   1  27
BRANCH  10  28
ATOM     28  O5  UNL     1      16.574   3.079  15.823  0.00  0.00    -0.494 OA
ATOM     29  C24 UNL     1      16.044   1.771  15.991  0.00  0.00    +0.277 C 
ENDBRANCH  10  28
TORSDOF 6
ENDMDL
MODEL 2
REMARK VINA RESULT:    -5.307      5.972      7.994
REMARK INTER + INTRA:          -7.980
REMARK INTER:                  -7.079
REMARK INTRA:                  -0.901
REMARK UNBOUND:                -0.812
REMARK  Name = data/mahkota_dewa_dn/results/docking/ligands/pdb/264-trihydroxy-4-methoxybenzophenone.pdb
REMARK  8 active torsions:
REMARK  status: ('A' for Active; 'I' for Inactive)
REMARK    1  A    between atoms: C1_1  and  O1_2
REMARK    2  A    between atoms: O1_2  and  C2_3
REMARK    3  A    between atoms: C8_10  and  C9_12
REMARK    4  A    between atoms: C12_15  and  O4_18
REMARK    5  A    between atoms: O4_18  and  C15_19
REMARK    6  A    between atoms: C15_19  and  C16_20
REMARK    7  A    between atoms: C22_26  and  O5_28
REMARK    8  A    between atoms: O5_28  and  C24_29
REMARK                            x       y       z     vdW  Elec       q    Type
REMARK                         _______ _______ _______ _____ _____    ______ ____
ROOT
ATOM      1  C2  UNL     1      16.248   5.465  16.842  0.00  0.00    +0.127 A 
ATOM      2  C3  UNL     1      15.601   6.442  16.092  0.00  0.00    +0.092 A 
ATOM      3  C4  UNL     1      15.173   6.154  14.795  0.00  0.00    +0.139 A 
ATOM      4  C5  UNL     1      15.414   4.898  14.220  0.00  0.00    +0.101 A 
ATOM      5  C6  UNL     1      14.987   4.701  12.805  0.00  0.00    +0.174 C 
ATOM      6  O2  UNL     1      15.051   3.623  12.223  0.00  0.00    -0.292 OA
ATOM      7  C7  UNL     1      14.499   5.926  12.084  0.00  0.00    +0.129 C 
ATOM      8  C8  UNL     1      13.700   6.754  13.073  0.00  0.00    +0.211 C 
ATOM      9  O3  UNL     1      14.540   7.188  14.152  0.00  0.00    -0.483 OA
ATOM     10  C22 UNL     1      16.066   3.903  14.971  0.00  0.00    +0.138 A 
ATOM     11  C23 UNL     1      16.471   4.203  16.280  0.00  0.00    +0.092 A 
ENDROOT
BRANCH   8  12
ATOM     12  C9  UNL     1      13.107   7.976  12.396  0.00  0.00    -0.007 A 
ATOM     13  C10 UNL     1      12.197   7.856  11.336  0.00  0.00    +0.011 A 
ATOM     14  C11 UNL     1      11.637   8.990  10.736  0.00  0.00    +0.046 A 
ATOM     15  C12 UNL     1      11.978  10.263  11.188  0.00  0.00    +0.121 A 
ATOM     16  C13 UNL     1      12.870  10.390  12.256  0.00  0.00    +0.046 A 
ATOM     17  C14 UNL     1      13.432   9.259  12.855  0.00  0.00    +0.011 A 
BRANCH  15  18
ATOM     18  O4  UNL     1      11.497  11.448  10.704  0.00  0.00    -0.487 OA
BRANCH  18  19
ATOM     19  C15 UNL     1      11.950  11.886   9.419  0.00  0.00    +0.264 C 
BRANCH  19  20
ATOM     20  C16 UNL     1      10.915  11.732   8.326  0.00  0.00    -0.010 A 
ATOM     21  C17 UNL     1      11.274  11.336   7.029  0.00  0.00    +0.007 A 
ATOM     22  C18 UNL     1      10.301  11.173   6.041  0.00  0.00    +0.000 A 
ATOM     23  C19 UNL     1       8.958  11.393   6.341  0.00  0.00    +0.000 A 
ATOM     24  C20 UNL     1       8.586  11.772   7.629  0.00  0.00    +0.000 A 
ATOM     25  C21 UNL     1       9.558  11.935   8.618  0.00  0.00    +0.007 A 
ENDBRANCH  19  20
ENDBRANCH  18  19
ENDBRANCH  15  18
ENDBRANCH   8  12
BRANCH   1  27
ATOM     26  C1  UNL     1      17.635   6.661  18.362  0.00  0.00    +0.277 C 
ATOM     27  O1  UNL     1      16.708   5.607  18.122  0.00  0.00    -0.495 OA
ENDBRANCH   1  27
BRANCH  10  28
ATOM     28  O5  UNL     1      16.281   2.693  14.373  0.00  0.00    -0.494 OA
ATOM     29  C24 UNL     1      17.511   2.024  14.616  0.00  0.00    +0.277 C 
ENDBRANCH  10  28
TORSDOF 6
ENDMDL
MODEL 3
REMARK VINA RESULT:    -5.164      1.561      3.390
REMARK INTER + INTRA:          -7.787
REMARK INTER:                  -7.082
REMARK INTRA:                  -0.705
REMARK UNBOUND:                -0.812
REMARK  Name = data/mahkota_dewa_dn/results/docking/ligands/pdb/264-trihydroxy-4-methoxybenzophenone.pdb
REMARK  8 active torsions:
REMARK  status: ('A' for Active; 'I' for Inactive)
REMARK    1  A    between atoms: C1_1  and  O1_2
REMARK    2  A    between atoms: O1_2  and  C2_3
REMARK    3  A    between atoms: C8_10  and  C9_12
REMARK    4  A    between atoms: C12_15  and  O4_18
REMARK    5  A    between atoms: O4_18  and  C15_19
REMARK    6  A    between atoms: C15_19  and  C16_20
REMARK    7  A    between atoms: C22_26  and  O5_28
REMARK    8  A    between atoms: O5_28  and  C24_29
REMARK                            x       y       z     vdW  Elec       q    Type
REMARK                         _______ _______ _______ _____ _____    ______ ____
ROOT
ATOM      1  C2  UNL     1      15.066   3.184  14.368  0.00  0.00    +0.127 A 
ATOM      2  C3  UNL     1      14.787   4.464  14.836  0.00  0.00    +0.092 A 
ATOM      3  C4  UNL     1      15.511   4.984  15.911  0.00  0.00    +0.139 A 
ATOM      4  C5  UNL     1      16.499   4.222  16.550  0.00  0.00    +0.101 A 
ATOM      5  C6  UNL     1      17.172   4.829  17.734  0.00  0.00    +0.174 C 
ATOM      6  O2  UNL     1      18.117   4.308  18.316  0.00  0.00    -0.292 OA
ATOM      7  C7  UNL     1      16.599   6.128  18.227  0.00  0.00    +0.129 C 
ATOM      8  C8  UNL     1      16.187   6.940  17.013  0.00  0.00    +0.211 C 
ATOM      9  O3  UNL     1      15.158   6.258  16.284  0.00  0.00    -0.483 OA
ATOM     10  C22 UNL     1      16.790   2.928  16.082  0.00  0.00    +0.138 A 
ATOM     11  C23 UNL     1      16.067   2.428  14.989  0.00  0.00    +0.092 A 
ENDROOT
BRANCH   8  12
ATOM     12  C9  UNL     1      15.667   8.303  17.428  0.00  0.00    -0.007 A 
ATOM     13  C10 UNL     1      14.611   8.923  16.743  0.00  0.00    +0.011 A 
ATOM     14  C11 UNL     1      14.122  10.170  17.150  0.00  0.00    +0.046 A 
ATOM     15  C12 UNL     1      14.680  10.817  18.251  0.00  0.00    +0.121 A 
ATOM     16  C13 UNL     1      15.719  10.197  18.949  0.00  0.00    +0.046 A 
ATOM     17  C14 UNL     1      16.211   8.953  18.544  0.00  0.00    +0.011 A 
BRANCH  15  18
ATOM     18  O4  UNL     1      14.292  12.024  18.761  0.00  0.00    -0.487 OA
BRANCH  18  19
ATOM     19  C15 UNL     1      13.703  12.976  17.870  0.00  0.00    +0.264 C 
BRANCH  19  20
ATOM     20  C16 UNL     1      13.306  14.272  18.542  0.00  0.00    -0.010 A 
ATOM     21  C17 UNL     1      12.524  15.230  17.879  0.00  0.00    +0.007 A 
ATOM     22  C18 UNL     1      12.144  16.407  18.526  0.00  0.00    +0.000 A 
ATOM     23  C19 UNL     1      12.532  16.636  19.845  0.00  0.00    +0.000 A 
ATOM     24  C20 UNL     1      13.295  15.686  20.520  0.00  0.00    +0.000 A 
ATOM     25  C21 UNL     1      13.675  14.508  19.875  0.00  0.00    +0.007 A 
ENDBRANCH  19  20
ENDBRANCH  18  19
ENDBRANCH  15  18
ENDBRANCH   8  12
BRANCH   1  27
ATOM     26  C1  UNL     1      15.268   2.139  12.239  0.00  0.00    +0.277 C 
ATOM     27  O1  UNL     1      14.445   2.558  13.323  0.00  0.00    -0.495 OA
ENDBRANCH   1  27
BRANCH  10  28
ATOM     28  O5  UNL     1      17.760   2.218  16.732  0.00  0.00    -0.494 OA
ATOM     29  C24 UNL     1      17.371   1.107  17.528  0.00  0.00    +0.277 C 
ENDBRANCH  10  28
TORSDOF 6
ENDMDL
MODEL 4
REMARK VINA RESULT:    -5.064      6.522     11.462
REMARK INTER + INTRA:          -7.651
REMARK INTER:                  -6.832
REMARK INTRA:                  -0.820
REMARK UNBOUND:                -0.812
REMARK  Name = data/mahkota_dewa_dn/results/docking/ligands/pdb/264-trihydroxy-4-methoxybenzophenone.pdb
REMARK  8 active torsions:
REMARK  status: ('A' for Active; 'I' for Inactive)
REMARK    1  A    between atoms: C1_1  and  O1_2
REMARK    2  A    between atoms: O1_2  and  C2_3
REMARK    3  A    between atoms: C8_10  and  C9_12
REMARK    4  A    between atoms: C12_15  and  O4_18
REMARK    5  A    between atoms: O4_18  and  C15_19
REMARK    6  A    between atoms: C15_19  and  C16_20
REMARK    7  A    between atoms: C22_26  and  O5_28
REMARK    8  A    between atoms: O5_28  and  C24_29
REMARK                            x       y       z     vdW  Elec       q    Type
REMARK                         _______ _______ _______ _____ _____    ______ ____
ROOT
ATOM      1  C2  UNL     1      12.455  10.970   6.941  0.00  0.00    +0.127 A 
ATOM      2  C3  UNL     1      13.089  10.311   7.990  0.00  0.00    +0.092 A 
ATOM      3  C4  UNL     1      12.594  10.433   9.289  0.00  0.00    +0.139 A 
ATOM      4  C5  UNL     1      11.480  11.241   9.562  0.00  0.00    +0.101 A 
ATOM      5  C6  UNL     1      11.064  11.372  10.988  0.00  0.00    +0.174 C 
ATOM      6  O2  UNL     1      10.052  11.966  11.346  0.00  0.00    -0.292 OA
ATOM      7  C7  UNL     1      11.987  10.764  12.006  0.00  0.00    +0.129 C 
ATOM      8  C8  UNL     1      12.524   9.469  11.425  0.00  0.00    +0.211 C 
ATOM      9  O3  UNL     1      13.291   9.734  10.243  0.00  0.00    -0.483 OA
ATOM     10  C22 UNL     1      10.832  11.910   8.508  0.00  0.00    +0.138 A 
ATOM     11  C23 UNL     1      11.330  11.759   7.206  0.00  0.00    +0.092 A 
ENDROOT
BRANCH   8  12
ATOM     12  C9  UNL     1      13.409   8.754  12.429  0.00  0.00    -0.007 A 
ATOM     13  C10 UNL     1      13.427   7.354  12.522  0.00  0.00    +0.011 A 
ATOM     14  C11 UNL     1      14.267   6.705  13.434  0.00  0.00    +0.046 A 
ATOM     15  C12 UNL     1      15.102   7.445  14.269  0.00  0.00    +0.121 A 
ATOM     16  C13 UNL     1      15.102   8.838  14.169  0.00  0.00    +0.046 A 
ATOM     17  C14 UNL     1      14.264   9.490  13.260  0.00  0.00    +0.011 A 
BRANCH  15  18
ATOM     18  O4  UNL     1      15.977   6.940  15.191  0.00  0.00    -0.487 OA
BRANCH  18  19
ATOM     19  C15 UNL     1      15.444   6.199  16.292  0.00  0.00    +0.264 C 
BRANCH  19  20
ATOM     20  C16 UNL     1      15.781   4.725  16.253  0.00  0.00    -0.010 A 
ATOM     21  C17 UNL     1      16.818   4.191  17.031  0.00  0.00    +0.007 A 
ATOM     22  C18 UNL     1      17.097   2.823  17.002  0.00  0.00    +0.000 A 
ATOM     23  C19 UNL     1      16.335   1.972  16.203  0.00  0.00    +0.000 A 
ATOM     24  C20 UNL     1      15.291   2.487  15.437  0.00  0.00    +0.000 A 
ATOM     25  C21 UNL     1      15.012   3.854  15.466  0.00  0.00    +0.007 A 
ENDBRANCH  19  20
ENDBRANCH  18  19
ENDBRANCH  15  18
ENDBRANCH   8  12
BRANCH   1  27
ATOM     26  C1  UNL     1      14.192  10.646   5.347  0.00  0.00    +0.277 C 
ATOM     27  O1  UNL     1      12.825  10.929   5.626  0.00  0.00    -0.495 OA
ENDBRANCH   1  27
BRANCH  10  28
ATOM     28  O5  UNL     1       9.751  12.687   8.818  0.00  0.00    -0.494 OA
ATOM     29  C24 UNL     1       8.490  12.352   8.253  0.00  0.00    +0.277 C 
ENDBRANCH  10  28
TORSDOF 6
ENDMDL
MODEL 5
REMARK VINA RESULT:    -5.034      6.160     12.258
REMARK INTER + INTRA:          -7.611
REMARK INTER:                  -6.736
REMARK INTRA:                  -0.875
REMARK UNBOUND:                -0.812
REMARK  Name = data/mahkota_dewa_dn/results/docking/ligands/pdb/264-trihydroxy-4-methoxybenzophenone.pdb
REMARK  8 active torsions:
REMARK  status: ('A' for Active; 'I' for Inactive)
REMARK    1  A    between atoms: C1_1  and  O1_2
REMARK    2  A    between atoms: O1_2  and  C2_3
REMARK    3  A    between atoms: C8_10  and  C9_12
REMARK    4  A    between atoms: C12_15  and  O4_18
REMARK    5  A    between atoms: O4_18  and  C15_19
REMARK    6  A    between atoms: C15_19  and  C16_20
REMARK    7  A    between atoms: C22_26  and  O5_28
REMARK    8  A    between atoms: O5_28  and  C24_29
REMARK                            x       y       z     vdW  Elec       q    Type
REMARK                         _______ _______ _______ _____ _____    ______ ____
ROOT
ATOM      1  C2  UNL     1      10.077  11.741   8.760  0.00  0.00    +0.127 A 
ATOM      2  C3  UNL     1      10.654  10.700   9.478  0.00  0.00    +0.092 A 
ATOM      3  C4  UNL     1      11.733  10.954  10.327  0.00  0.00    +0.139 A 
ATOM      4  C5  UNL     1      12.269  12.245  10.443  0.00  0.00    +0.101 A 
ATOM      5  C6  UNL     1      13.466  12.412  11.315  0.00  0.00    +0.174 C 
ATOM      6  O2  UNL     1      13.967  13.501  11.577  0.00  0.00    -0.292 OA
ATOM      7  C7  UNL     1      14.082  11.147  11.844  0.00  0.00    +0.129 C 
ATOM      8  C8  UNL     1      12.953  10.190  12.177  0.00  0.00    +0.211 C 
ATOM      9  O3  UNL     1      12.218   9.855  10.992  0.00  0.00    -0.483 OA
ATOM     10  C22 UNL     1      11.691  13.305   9.721  0.00  0.00    +0.138 A 
ATOM     11  C23 UNL     1      10.595  13.035   8.889  0.00  0.00    +0.092 A 
ENDROOT
BRANCH   8  12
ATOM     12  C9  UNL     1      13.493   8.912  12.791  0.00  0.00    -0.007 A 
ATOM     13  C10 UNL     1      13.191   7.655  12.247  0.00  0.00    +0.011 A 
ATOM     14  C11 UNL     1      13.716   6.483  12.806  0.00  0.00    +0.046 A 
ATOM     15  C12 UNL     1      14.552   6.551  13.919  0.00  0.00    +0.121 A 
ATOM     16  C13 UNL     1      14.872   7.801  14.454  0.00  0.00    +0.046 A 
ATOM     17  C14 UNL     1      14.349   8.972  13.899  0.00  0.00    +0.011 A 
BRANCH  15  18
ATOM     18  O4  UNL     1      15.141   5.492  14.553  0.00  0.00    -0.487 OA
BRANCH  18  19
ATOM     19  C15 UNL     1      14.447   4.242  14.565  0.00  0.00    +0.264 C 
BRANCH  19  20
ATOM     20  C16 UNL     1      15.151   3.148  13.792  0.00  0.00    -0.010 A 
ATOM     21  C17 UNL     1      14.655   2.685  12.564  0.00  0.00    +0.007 A 
ATOM     22  C18 UNL     1      15.334   1.694  11.852  0.00  0.00    +0.000 A 
ATOM     23  C19 UNL     1      16.521   1.164  12.353  0.00  0.00    +0.000 A 
ATOM     24  C20 UNL     1      17.034   1.627  13.563  0.00  0.00    +0.000 A 
ATOM     25  C21 UNL     1      16.356   2.617  14.276  0.00  0.00    +0.007 A 
ENDBRANCH  19  20
ENDBRANCH  18  19
ENDBRANCH  15  18
ENDBRANCH   8  12
BRANCH   1  27
ATOM     26  C1  UNL     1       9.309  11.529   6.517  0.00  0.00    +0.277 C 
ATOM     27  O1  UNL     1       9.014  11.637   7.905  0.00  0.00    -0.495 OA
ENDBRANCH   1  27
BRANCH  10  28
ATOM     28  O5  UNL     1      12.244  14.547   9.862  0.00  0.00    -0.494 OA
ATOM     29  C24 UNL     1      11.387  15.680   9.826  0.00  0.00    +0.277 C 
ENDBRANCH  10  28
TORSDOF 6
ENDMDL
MODEL 6
REMARK VINA RESULT:    -4.971      6.373      8.674
REMARK INTER + INTRA:          -7.527
REMARK INTER:                  -6.595
REMARK INTRA:                  -0.931
REMARK UNBOUND:                -0.812
REMARK  Name = data/mahkota_dewa_dn/results/docking/ligands/pdb/264-trihydroxy-4-methoxybenzophenone.pdb
REMARK  8 active torsions:
REMARK  status: ('A' for Active; 'I' for Inactive)
REMARK    1  A    between atoms: C1_1  and  O1_2
REMARK    2  A    between atoms: O1_2  and  C2_3
REMARK    3  A    between atoms: C8_10  and  C9_12
REMARK    4  A    between atoms: C12_15  and  O4_18
REMARK    5  A    between atoms: O4_18  and  C15_19
REMARK    6  A    between atoms: C15_19  and  C16_20
REMARK    7  A    between atoms: C22_26  and  O5_28
REMARK    8  A    between atoms: O5_28  and  C24_29
REMARK                            x       y       z     vdW  Elec       q    Type
REMARK                         _______ _______ _______ _____ _____    ______ ____
ROOT
ATOM      1  C2  UNL     1      15.516   3.457  13.447  0.00  0.00    +0.127 A 
ATOM      2  C3  UNL     1      14.684   4.414  12.876  0.00  0.00    +0.092 A 
ATOM      3  C4  UNL     1      14.724   5.733  13.333  0.00  0.00    +0.139 A 
ATOM      4  C5  UNL     1      15.572   6.104  14.386  0.00  0.00    +0.101 A 
ATOM      5  C6  UNL     1      15.498   7.517  14.858  0.00  0.00    +0.174 C 
ATOM      6  O2  UNL     1      16.253   7.990  15.700  0.00  0.00    -0.292 OA
ATOM      7  C7  UNL     1      14.396   8.354  14.271  0.00  0.00    +0.129 C 
ATOM      8  C8  UNL     1      14.254   7.970  12.810  0.00  0.00    +0.211 C 
ATOM      9  O3  UNL     1      13.867   6.593  12.692  0.00  0.00    -0.483 OA
ATOM     10  C22 UNL     1      16.418   5.144  14.969  0.00  0.00    +0.138 A 
ATOM     11  C23 UNL     1      16.379   3.828  14.484  0.00  0.00    +0.092 A 
ENDROOT
BRANCH   8  12
ATOM     12  C9  UNL     1      13.208   8.829  12.126  0.00  0.00    -0.007 A 
ATOM     13  C10 UNL     1      12.199   8.261  11.333  0.00  0.00    +0.011 A 
ATOM     14  C11 UNL     1      11.224   9.062  10.727  0.00  0.00    +0.046 A 
ATOM     15  C12 UNL     1      11.240  10.444  10.905  0.00  0.00    +0.121 A 
ATOM     16  C13 UNL     1      12.230  11.014  11.709  0.00  0.00    +0.046 A 
ATOM     17  C14 UNL     1      13.207  10.218  12.314  0.00  0.00    +0.011 A 
BRANCH  15  18
ATOM     18  O4  UNL     1      10.345  11.337  10.385  0.00  0.00    -0.487 OA
BRANCH  18  19
ATOM     19  C15 UNL     1      10.827  12.317   9.462  0.00  0.00    +0.264 C 
BRANCH  19  20
ATOM     20  C16 UNL     1      10.560  11.970   8.013  0.00  0.00    -0.010 A 
ATOM     21  C17 UNL     1      11.603  11.646   7.134  0.00  0.00    +0.007 A 
ATOM     22  C18 UNL     1      11.334  11.302   5.808  0.00  0.00    +0.000 A 
ATOM     23  C19 UNL     1      10.019  11.267   5.350  0.00  0.00    +0.000 A 
ATOM     24  C20 UNL     1       8.971  11.570   6.216  0.00  0.00    +0.000 A 
ATOM     25  C21 UNL     1       9.239  11.915   7.542  0.00  0.00    +0.007 A 
ENDBRANCH  19  20
ENDBRANCH  18  19
ENDBRANCH  15  18
ENDBRANCH   8  12
BRANCH   1  27
ATOM     26  C1  UNL     1      15.652   1.847  11.700  0.00  0.00    +0.277 C 
ATOM     27  O1  UNL     1      15.587   2.138  13.091  0.00  0.00    -0.495 OA
ENDBRANCH   1  27
BRANCH  10  28
ATOM     28  O5  UNL     1      17.229   5.547  15.992  0.00  0.00    -0.494 OA
ATOM     29  C24 UNL     1      18.635   5.407  15.842  0.00  0.00    +0.277 C 
ENDBRANCH  10  28
TORSDOF 6
ENDMDL
MODEL 7
REMARK VINA RESULT:    -4.960      5.876      8.155
REMARK INTER + INTRA:          -7.511
REMARK INTER:                  -6.648
REMARK INTRA:                  -0.863
REMARK UNBOUND:                -0.812
REMARK  Name = data/mahkota_dewa_dn/results/docking/ligands/pdb/264-trihydroxy-4-methoxybenzophenone.pdb
REMARK  8 active torsions:
REMARK  status: ('A' for Active; 'I' for Inactive)
REMARK    1  A    between atoms: C1_1  and  O1_2
REMARK    2  A    between atoms: O1_2  and  C2_3
REMARK    3  A    between atoms: C8_10  and  C9_12
REMARK    4  A    between atoms: C12_15  and  O4_18
REMARK    5  A    between atoms: O4_18  and  C15_19
REMARK    6  A    between atoms: C15_19  and  C16_20
REMARK    7  A    between atoms: C22_26  and  O5_28
REMARK    8  A    between atoms: O5_28  and  C24_29
REMARK                            x       y       z     vdW  Elec       q    Type
REMARK                         _______ _______ _______ _____ _____    ______ ____
ROOT
ATOM      1  C2  UNL     1      16.366   2.264  11.384  0.00  0.00    +0.127 A 
ATOM      2  C3  UNL     1      15.701   3.472  11.203  0.00  0.00    +0.092 A 
ATOM      3  C4  UNL     1      15.294   4.215  12.313  0.00  0.00    +0.139 A 
ATOM      4  C5  UNL     1      15.517   3.745  13.615  0.00  0.00    +0.101 A 
ATOM      5  C6  UNL     1      14.984   4.567  14.739  0.00  0.00    +0.174 C 
ATOM      6  O2  UNL     1      15.197   4.318  15.920  0.00  0.00    -0.292 OA
ATOM      7  C7  UNL     1      14.110   5.728  14.354  0.00  0.00    +0.129 C 
ATOM      8  C8  UNL     1      14.689   6.341  13.093  0.00  0.00    +0.211 C 
ATOM      9  O3  UNL     1      14.655   5.394  12.017  0.00  0.00    -0.483 OA
ATOM     10  C22 UNL     1      16.190   2.525  13.808  0.00  0.00    +0.138 A 
ATOM     11  C23 UNL     1      16.610   1.802  12.682  0.00  0.00    +0.092 A 
ENDROOT
BRANCH   8  12
ATOM     12  C9  UNL     1      13.902   7.572  12.682  0.00  0.00    -0.007 A 
ATOM     13  C10 UNL     1      12.902   7.506  11.700  0.00  0.00    +0.011 A 
ATOM     14  C11 UNL     1      12.165   8.643  11.347  0.00  0.00    +0.046 A 
ATOM     15  C12 UNL     1      12.416   9.863  11.970  0.00  0.00    +0.121 A 
ATOM     16  C13 UNL     1      13.397   9.932  12.962  0.00  0.00    +0.046 A 
ATOM     17  C14 UNL     1      14.137   8.799  13.316  0.00  0.00    +0.011 A 
BRANCH  15  18
ATOM     18  O4  UNL     1      11.764  11.041  11.732  0.00  0.00    -0.487 OA
BRANCH  18  19
ATOM     19  C15 UNL     1      11.955  11.674  10.463  0.00  0.00    +0.264 C 
BRANCH  19  20
ATOM     20  C16 UNL     1      10.724  11.653   9.583  0.00  0.00    -0.010 A 
ATOM     21  C17 UNL     1       9.601  12.440   9.876  0.00  0.00    +0.007 A 
ATOM     22  C18 UNL     1       8.486  12.427   9.037  0.00  0.00    +0.000 A 
ATOM     23  C19 UNL     1       8.485  11.637   7.889  0.00  0.00    +0.000 A 
ATOM     24  C20 UNL     1       9.600  10.862   7.577  0.00  0.00    +0.000 A 
ATOM     25  C21 UNL     1      10.716  10.874   8.416  0.00  0.00    +0.007 A 
ENDBRANCH  19  20
ENDBRANCH  18  19
ENDBRANCH  15  18
ENDBRANCH   8  12
BRANCH   1  27
ATOM     26  C1  UNL     1      17.003   2.024   9.104  0.00  0.00    +0.277 C 
ATOM     27  O1  UNL     1      16.828   1.444  10.392  0.00  0.00    -0.495 OA
ENDBRANCH   1  27
BRANCH  10  28
ATOM     28  O5  UNL     1      16.386   2.103  15.093  0.00  0.00    -0.494 OA
ATOM     29  C24 UNL     1      17.429   1.173  15.351  0.00  0.00    +0.277 C 
ENDBRANCH  10  28
TORSDOF 6
ENDMDL
MODEL 8
REMARK VINA RESULT:    -4.881      6.252      8.694
REMARK INTER + INTRA:          -7.404
REMARK INTER:                  -6.337
REMARK INTRA:                  -1.067
REMARK UNBOUND:                -0.812
REMARK  Name = data/mahkota_dewa_dn/results/docking/ligands/pdb/264-trihydroxy-4-methoxybenzophenone.pdb
REMARK  8 active torsions:
REMARK  status: ('A' for Active; 'I' for Inactive)
REMARK    1  A    between atoms: C1_1  and  O1_2
REMARK    2  A    between atoms: O1_2  and  C2_3
REMARK    3  A    between atoms: C8_10  and  C9_12
REMARK    4  A    between atoms: C12_15  and  O4_18
REMARK    5  A    between atoms: O4_18  and  C15_19
REMARK    6  A    between atoms: C15_19  and  C16_20
REMARK    7  A    between atoms: C22_26  and  O5_28
REMARK    8  A    between atoms: O5_28  and  C24_29
REMARK                            x       y       z     vdW  Elec       q    Type
REMARK                         _______ _______ _______ _____ _____    ______ ____
ROOT
ATOM      1  C2  UNL     1      15.414   4.741  14.722  0.00  0.00    +0.127 A 
ATOM      2  C3  UNL     1      14.626   5.506  13.869  0.00  0.00    +0.092 A 
ATOM      3  C4  UNL     1      14.477   6.875  14.100  0.00  0.00    +0.139 A 
ATOM      4  C5  UNL     1      15.086   7.489  15.204  0.00  0.00    +0.101 A 
ATOM      5  C6  UNL     1      14.815   8.940  15.416  0.00  0.00    +0.174 C 
ATOM      6  O2  UNL     1      15.363   9.612  16.282  0.00  0.00    -0.292 OA
ATOM      7  C7  UNL     1      13.775   9.556  14.522  0.00  0.00    +0.129 C 
ATOM      8  C8  UNL     1      13.934   8.945  13.142  0.00  0.00    +0.211 C 
ATOM      9  O3  UNL     1      13.686   7.533  13.191  0.00  0.00    -0.483 OA
ATOM     10  C22 UNL     1      15.886   6.723  16.072  0.00  0.00    +0.138 A 
ATOM     11  C23 UNL     1      16.041   5.354  15.813  0.00  0.00    +0.092 A 
ENDROOT
BRANCH   8  12
ATOM     12  C9  UNL     1      12.965   9.575  12.159  0.00  0.00    -0.007 A 
ATOM     13  C10 UNL     1      12.731  10.958  12.147  0.00  0.00    +0.011 A 
ATOM     14  C11 UNL     1      11.853  11.531  11.219  0.00  0.00    +0.046 A 
ATOM     15  C12 UNL     1      11.196  10.730  10.287  0.00  0.00    +0.121 A 
ATOM     16  C13 UNL     1      11.439   9.354  10.282  0.00  0.00    +0.046 A 
ATOM     17  C14 UNL     1      12.313   8.778  11.208  0.00  0.00    +0.011 A 
BRANCH  15  18
ATOM     18  O4  UNL     1      10.328  11.159   9.322  0.00  0.00    -0.487 OA
BRANCH  18  19
ATOM     19  C15 UNL     1      10.721  12.265   8.505  0.00  0.00    +0.264 C 
BRANCH  19  20
ATOM     20  C16 UNL     1      11.711  11.899   7.421  0.00  0.00    -0.010 A 
ATOM     21  C17 UNL     1      11.453  10.859   6.516  0.00  0.00    +0.007 A 
ATOM     22  C18 UNL     1      12.366  10.553   5.506  0.00  0.00    +0.000 A 
ATOM     23  C19 UNL     1      13.542  11.291   5.381  0.00  0.00    +0.000 A 
ATOM     24  C20 UNL     1      13.804  12.337   6.263  0.00  0.00    +0.000 A 
ATOM     25  C21 UNL     1      12.891  12.643   7.274  0.00  0.00    +0.007 A 
ENDBRANCH  19  20
ENDBRANCH  18  19
ENDBRANCH  15  18
ENDBRANCH   8  12
BRANCH   1  27
ATOM     26  C1  UNL     1      14.850   2.530  15.398  0.00  0.00    +0.277 C 
ATOM     27  O1  UNL     1      15.653   3.399  14.608  0.00  0.00    -0.495 OA
ENDBRANCH   1  27
BRANCH  10  28
ATOM     28  O5  UNL     1      16.461   7.360  17.136  0.00  0.00    -0.494 OA
ATOM     29  C24 UNL     1      17.371   6.635  17.951  0.00  0.00    +0.277 C 
ENDBRANCH  10  28
TORSDOF 6
ENDMDL
MODEL 9
REMARK VINA RESULT:    -4.785      6.402     10.073
REMARK INTER + INTRA:          -7.276
REMARK INTER:                  -6.332
REMARK INTRA:                  -0.944
REMARK UNBOUND:                -0.812
REMARK  Name = data/mahkota_dewa_dn/results/docking/ligands/pdb/264-trihydroxy-4-methoxybenzophenone.pdb
REMARK  8 active torsions:
REMARK  status: ('A' for Active; 'I' for Inactive)
REMARK    1  A    between atoms: C1_1  and  O1_2
REMARK    2  A    between atoms: O1_2  and  C2_3
REMARK    3  A    between atoms: C8_10  and  C9_12
REMARK    4  A    between atoms: C12_15  and  O4_18
REMARK    5  A    between atoms: O4_18  and  C15_19
REMARK    6  A    between atoms: C15_19  and  C16_20
REMARK    7  A    between atoms: C22_26  and  O5_28
REMARK    8  A    between atoms: O5_28  and  C24_29
REMARK                            x       y       z     vdW  Elec       q    Type
REMARK                         _______ _______ _______ _____ _____    ______ ____
ROOT
ATOM      1  C2  UNL     1       9.661  12.112   9.859  0.00  0.00    +0.127 A 
ATOM      2  C3  UNL     1      10.462  11.486  10.807  0.00  0.00    +0.092 A 
ATOM      3  C4  UNL     1      11.649  10.864  10.414  0.00  0.00    +0.139 A 
ATOM      4  C5  UNL     1      12.032  10.832   9.066  0.00  0.00    +0.101 A 
ATOM      5  C6  UNL     1      13.277  10.083   8.727  0.00  0.00    +0.174 C 
ATOM      6  O2  UNL     1      13.770  10.063   7.605  0.00  0.00    -0.292 OA
ATOM      7  C7  UNL     1      13.898   9.292   9.844  0.00  0.00    +0.129 C 
ATOM      8  C8  UNL     1      13.751  10.101  11.118  0.00  0.00    +0.211 C 
ATOM      9  O3  UNL     1      12.364  10.286  11.434  0.00  0.00    -0.483 OA
ATOM     10  C22 UNL     1      11.229  11.463   8.100  0.00  0.00    +0.138 A 
ATOM     11  C23 UNL     1      10.051  12.101   8.515  0.00  0.00    +0.092 A 
ENDROOT
BRANCH   8  12
ATOM     12  C9  UNL     1      14.425   9.400  12.283  0.00  0.00    -0.007 A 
ATOM     13  C10 UNL     1      15.620   9.884  12.836  0.00  0.00    +0.011 A 
ATOM     14  C11 UNL     1      16.219   9.244  13.927  0.00  0.00    +0.046 A 
ATOM     15  C12 UNL     1      15.633   8.108  14.482  0.00  0.00    +0.121 A 
ATOM     16  C13 UNL     1      14.434   7.631  13.948  0.00  0.00    +0.046 A 
ATOM     17  C14 UNL     1      13.834   8.267  12.858  0.00  0.00    +0.011 A 
BRANCH  15  18
ATOM     18  O4  UNL     1      16.103   7.396  15.551  0.00  0.00    -0.487 OA
BRANCH  18  19
ATOM     19  C15 UNL     1      15.292   7.331  16.728  0.00  0.00    +0.264 C 
BRANCH  19  20
ATOM     20  C16 UNL     1      15.601   8.413  17.739  0.00  0.00    -0.010 A 
ATOM     21  C17 UNL     1      14.583   9.045  18.468  0.00  0.00    +0.007 A 
ATOM     22  C18 UNL     1      14.890  10.022  19.416  0.00  0.00    +0.000 A 
ATOM     23  C19 UNL     1      16.219  10.370  19.655  0.00  0.00    +0.000 A 
ATOM     24  C20 UNL     1      17.241   9.738  18.950  0.00  0.00    +0.000 A 
ATOM     25  C21 UNL     1      16.935   8.761  18.001  0.00  0.00    +0.007 A 
ENDBRANCH  19  20
ENDBRANCH  18  19
ENDBRANCH  15  18
ENDBRANCH   8  12
BRANCH   1  27
ATOM     26  C1  UNL     1       8.549  14.181  10.246  0.00  0.00    +0.277 C 
ATOM     27  O1  UNL     1       8.485  12.766  10.105  0.00  0.00    -0.495 OA
ENDBRANCH   1  27
BRANCH  10  28
ATOM     28  O5  UNL     1      11.639  11.409   6.797  0.00  0.00    -0.494 OA
ATOM     29  C24 UNL     1      10.654  11.314   5.778  0.00  0.00    +0.277 C 
ENDBRANCH  10  28
TORSDOF 6
ENDMDL
