MODEL 1
REMARK VINA RESULT:    -4.686      0.000      0.000
REMARK INTER + INTRA:          -6.842
REMARK INTER:                  -6.056
REMARK INTRA:                  -0.787
REMARK UNBOUND:                -0.787
REMARK  Name = data/mahkota_dewa_dn/results/docking/ligands/pdb/Naringeninchalcone.pdb
REMARK  7 active torsions:
REMARK  status: ('A' for Active; 'I' for Inactive)
REMARK    1  A    between atoms: C3_3  and  O5_20
REMARK    2  A    between atoms: C6_6  and  C7_7
REMARK    3  A    between atoms: C8_8  and  C9_9
REMARK    4  A    between atoms: C9_9  and  C10_11
REMARK    5  A    between atoms: C11_12  and  O4_19
REMARK    6  A    between atoms: C13_14  and  O3_18
REMARK    7  A    between atoms: C15_16  and  O2_17
REMARK                            x       y       z     vdW  Elec       q    Type
REMARK                         _______ _______ _______ _____ _____    ______ ____
ROOT
ATOM      1  C9  UNL     1      14.362   2.586  14.903  0.00  0.00    +0.193 C 
ATOM      2  O1  UNL     1      13.411   2.013  15.438  0.00  0.00    -0.287 OA
ENDROOT
BRANCH   1   3
ATOM      3  C10 UNL     1      15.403   3.193  15.772  0.00  0.00    +0.104 A 
ATOM      4  C11 UNL     1      16.316   2.331  16.410  0.00  0.00    +0.135 A 
ATOM      5  C12 UNL     1      17.343   2.827  17.214  0.00  0.00    +0.091 A 
ATOM      6  C13 UNL     1      17.445   4.198  17.408  0.00  0.00    +0.124 A 
ATOM      7  C14 UNL     1      16.537   5.074  16.822  0.00  0.00    +0.091 A 
ATOM      8  C15 UNL     1      15.512   4.572  16.013  0.00  0.00    +0.135 A 
BRANCH   8   9
ATOM      9  O2  UNL     1      14.604   5.451  15.493  0.00  0.00    -0.506 OA
ATOM     10  H9  UNL     1      13.721   5.256  15.852  0.00  0.00    +0.292 HD
ENDBRANCH   8   9
BRANCH   6  11
ATOM     11  O3  UNL     1      18.427   4.733  18.187  0.00  0.00    -0.507 OA
ATOM     12  H10 UNL     1      19.291   4.478  17.821  0.00  0.00    +0.292 HD
ENDBRANCH   6  11
BRANCH   4  13
ATOM     13  O4  UNL     1      16.263   0.965  16.291  0.00  0.00    -0.506 OA
ATOM     14  H11 UNL     1      16.404   0.740  15.342  0.00  0.00    +0.292 HD
ENDBRANCH   4  13
ENDBRANCH   1   3
BRANCH   1  16
ATOM     15  C7  UNL     1      15.647   2.055  12.891  0.00  0.00    +0.012 C 
ATOM     16  C8  UNL     1      14.539   2.589  13.427  0.00  0.00    +0.052 C 
BRANCH  15  22
ATOM     17  C1  UNL     1      15.878   0.762  10.797  0.00  0.00    +0.011 A 
ATOM     18  C2  UNL     1      16.155   0.660   9.431  0.00  0.00    +0.046 A 
ATOM     19  C3  UNL     1      16.485   1.804   8.714  0.00  0.00    +0.117 A 
ATOM     20  C4  UNL     1      16.548   3.041   9.342  0.00  0.00    +0.046 A 
ATOM     21  C5  UNL     1      16.272   3.142  10.708  0.00  0.00    +0.011 A 
ATOM     22  C6  UNL     1      15.919   2.003  11.448  0.00  0.00    -0.025 A 
BRANCH  19  23
ATOM     23  O5  UNL     1      16.763   1.753   7.381  0.00  0.00    -0.507 OA
ATOM     24  H12 UNL     1      17.277   0.948   7.202  0.00  0.00    +0.292 HD
ENDBRANCH  19  23
ENDBRANCH  15  22
ENDBRANCH   1  16
TORSDOF 7
ENDMDL
MODEL 2
REMARK VINA RESULT:    -4.608      9.567     11.945
REMARK INTER + INTRA:          -6.742
REMARK INTER:                  -5.948
REMARK INTRA:                  -0.793
REMARK UNBOUND:                -0.787
REMARK  Name = data/mahkota_dewa_dn/results/docking/ligands/pdb/Naringeninchalcone.pdb
REMARK  7 active torsions:
REMARK  status: ('A' for Active; 'I' for Inactive)
REMARK    1  A    between atoms: C3_3  and  O5_20
REMARK    2  A    between atoms: C6_6  and  C7_7
REMARK    3  A    between atoms: C8_8  and  C9_9
REMARK    4  A    between atoms: C9_9  and  C10_11
REMARK    5  A    between atoms: C11_12  and  O4_19
REMARK    6  A    between atoms: C13_14  and  O3_18
REMARK    7  A    between atoms: C15_16  and  O2_17
REMARK                            x       y       z     vdW  Elec       q    Type
REMARK                         _______ _______ _______ _____ _____    ______ ____
ROOT
ATOM      1  C9  UNL     1      11.479  13.031   9.782  0.00  0.00    +0.193 C 
ATOM      2  O1  UNL     1      11.842  14.208   9.800  0.00  0.00    -0.287 OA
ENDROOT
BRANCH   1   3
ATOM      3  C10 UNL     1      10.650  12.561   8.642  0.00  0.00    +0.104 A 
ATOM      4  C11 UNL     1      11.295  12.308   7.416  0.00  0.00    +0.135 A 
ATOM      5  C12 UNL     1      10.591  11.833   6.309  0.00  0.00    +0.091 A 
ATOM      6  C13 UNL     1       9.221  11.635   6.416  0.00  0.00    +0.124 A 
ATOM      7  C14 UNL     1       8.548  11.912   7.601  0.00  0.00    +0.091 A 
ATOM      8  C15 UNL     1       9.259  12.383   8.709  0.00  0.00    +0.135 A 
BRANCH   8   9
ATOM      9  O2  UNL     1       8.563  12.696   9.844  0.00  0.00    -0.506 OA
ATOM     10  H9  UNL     1       9.002  12.296  10.614  0.00  0.00    +0.292 HD
ENDBRANCH   8   9
BRANCH   6  11
ATOM     11  O3  UNL     1       8.486  11.177   5.363  0.00  0.00    -0.507 OA
ATOM     12  H10 UNL     1       7.868  11.874   5.085  0.00  0.00    +0.292 HD
ENDBRANCH   6  11
BRANCH   4  13
ATOM     13  O4  UNL     1      12.639  12.506   7.223  0.00  0.00    -0.506 OA
ATOM     14  H11 UNL     1      13.113  11.714   7.568  0.00  0.00    +0.292 HD
ENDBRANCH   4  13
ENDBRANCH   1   3
BRANCH   1  16
ATOM     15  C7  UNL     1      12.133  10.775  10.468  0.00  0.00    +0.012 C 
ATOM     16  C8  UNL     1      11.937  12.058  10.810  0.00  0.00    +0.052 C 
BRANCH  15  22
ATOM     17  C1  UNL     1      12.249   8.401  11.143  0.00  0.00    +0.011 A 
ATOM     18  C2  UNL     1      12.637   7.381  12.016  0.00  0.00    +0.046 A 
ATOM     19  C3  UNL     1      13.357   7.700  13.162  0.00  0.00    +0.117 A 
ATOM     20  C4  UNL     1      13.688   9.018  13.447  0.00  0.00    +0.046 A 
ATOM     21  C5  UNL     1      13.300  10.037  12.573  0.00  0.00    +0.011 A 
ATOM     22  C6  UNL     1      12.587   9.737  11.403  0.00  0.00    -0.025 A 
BRANCH  19  23
ATOM     23  O5  UNL     1      13.756   6.740  14.042  0.00  0.00    -0.507 OA
ATOM     24  H12 UNL     1      13.084   6.660  14.739  0.00  0.00    +0.292 HD
ENDBRANCH  19  23
ENDBRANCH  15  22
ENDBRANCH   1  16
TORSDOF 7
ENDMDL
MODEL 3
REMARK VINA RESULT:    -4.513      5.785      7.393
REMARK INTER + INTRA:          -6.618
REMARK INTER:                  -5.920
REMARK INTRA:                  -0.698
REMARK UNBOUND:                -0.787
REMARK  Name = data/mahkota_dewa_dn/results/docking/ligands/pdb/Naringeninchalcone.pdb
REMARK  7 active torsions:
REMARK  status: ('A' for Active; 'I' for Inactive)
REMARK    1  A    between atoms: C3_3  and  O5_20
REMARK    2  A    between atoms: C6_6  and  C7_7
REMARK    3  A    between atoms: C8_8  and  C9_9
REMARK    4  A    between atoms: C9_9  and  C10_11
REMARK    5  A    between atoms: C11_12  and  O4_19
REMARK    6  A    between atoms: C13_14  and  O3_18
REMARK    7  A    between atoms: C15_16  and  O2_17
REMARK                            x       y       z     vdW  Elec       q    Type
REMARK                         _______ _______ _______ _____ _____    ______ ____
ROOT
ATOM      1  C9  UNL     1      14.900   7.034  13.240  0.00  0.00    +0.193 C 
ATOM      2  O1  UNL     1      15.850   7.576  13.808  0.00  0.00    -0.287 OA
ENDROOT
BRANCH   1   3
ATOM      3  C10 UNL     1      14.904   5.554  13.106  0.00  0.00    +0.104 A 
ATOM      4  C11 UNL     1      14.671   4.786  14.263  0.00  0.00    +0.135 A 
ATOM      5  C12 UNL     1      14.626   3.392  14.213  0.00  0.00    +0.091 A 
ATOM      6  C13 UNL     1      14.843   2.754  12.999  0.00  0.00    +0.124 A 
ATOM      7  C14 UNL     1      15.113   3.483  11.845  0.00  0.00    +0.091 A 
ATOM      8  C15 UNL     1      15.152   4.880  11.900  0.00  0.00    +0.135 A 
BRANCH   8   9
ATOM      9  O2  UNL     1      15.470   5.567  10.762  0.00  0.00    -0.506 OA
ATOM     10  H9  UNL     1      16.400   5.400  10.532  0.00  0.00    +0.292 HD
ENDBRANCH   8   9
BRANCH   6  11
ATOM     11  O3  UNL     1      14.814   1.395  12.896  0.00  0.00    -0.507 OA
ATOM     12  H10 UNL     1      15.070   1.011  13.752  0.00  0.00    +0.292 HD
ENDBRANCH   6  11
BRANCH   4  13
ATOM     13  O4  UNL     1      14.477   5.341  15.503  0.00  0.00    -0.506 OA
ATOM     14  H11 UNL     1      14.384   4.605  16.151  0.00  0.00    +0.292 HD
ENDBRANCH   4  13
ENDBRANCH   1   3
BRANCH   1  16
ATOM     15  C7  UNL     1      13.879   8.822  11.919  0.00  0.00    +0.012 C 
ATOM     16  C8  UNL     1      13.716   7.812  12.787  0.00  0.00    +0.052 C 
BRANCH  15  22
ATOM     17  C1  UNL     1      12.284   9.392  10.120  0.00  0.00    +0.011 A 
ATOM     18  C2  UNL     1      11.255  10.169   9.580  0.00  0.00    +0.046 A 
ATOM     19  C3  UNL     1      10.728  11.217  10.325  0.00  0.00    +0.117 A 
ATOM     20  C4  UNL     1      11.215  11.501  11.595  0.00  0.00    +0.046 A 
ATOM     21  C5  UNL     1      12.243  10.723  12.133  0.00  0.00    +0.011 A 
ATOM     22  C6  UNL     1      12.779   9.650  11.406  0.00  0.00    -0.025 A 
BRANCH  19  23
ATOM     23  O5  UNL     1       9.725  12.002   9.840  0.00  0.00    -0.507 OA
ATOM     24  H12 UNL     1       9.663  12.801  10.389  0.00  0.00    +0.292 HD
ENDBRANCH  19  23
ENDBRANCH  15  22
ENDBRANCH   1  16
TORSDOF 7
ENDMDL
MODEL 4
REMARK VINA RESULT:    -4.497      3.785      7.851
REMARK INTER + INTRA:          -6.598
REMARK INTER:                  -5.781
REMARK INTRA:                  -0.817
REMARK UNBOUND:                -0.787
REMARK  Name = data/mahkota_dewa_dn/results/docking/ligands/pdb/Naringeninchalcone.pdb
REMARK  7 active torsions:
REMARK  status: ('A' for Active; 'I' for Inactive)
REMARK    1  A    between atoms: C3_3  and  O5_20
REMARK    2  A    between atoms: C6_6  and  C7_7
REMARK    3  A    between atoms: C8_8  and  C9_9
REMARK    4  A    between atoms: C9_9  and  C10_11
REMARK    5  A    between atoms: C11_12  and  O4_19
REMARK    6  A    between atoms: C13_14  and  O3_18
REMARK    7  A    between atoms: C15_16  and  O2_17
REMARK                            x       y       z     vdW  Elec       q    Type
REMARK                         _______ _______ _______ _____ _____    ______ ____
ROOT
ATOM      1  C9  UNL     1      15.899   6.322  13.990  0.00  0.00    +0.193 C 
ATOM      2  O1  UNL     1      16.363   6.426  12.854  0.00  0.00    -0.287 OA
ENDROOT
BRANCH   1   3
ATOM      3  C10 UNL     1      15.770   4.965  14.582  0.00  0.00    +0.104 A 
ATOM      4  C11 UNL     1      16.950   4.289  14.949  0.00  0.00    +0.135 A 
ATOM      5  C12 UNL     1      16.909   3.026  15.541  0.00  0.00    +0.091 A 
ATOM      6  C13 UNL     1      15.679   2.416  15.744  0.00  0.00    +0.124 A 
ATOM      7  C14 UNL     1      14.498   3.041  15.358  0.00  0.00    +0.091 A 
ATOM      8  C15 UNL     1      14.544   4.309  14.770  0.00  0.00    +0.135 A 
BRANCH   8   9
ATOM      9  O2  UNL     1      13.371   4.875  14.353  0.00  0.00    -0.506 OA
ATOM     10  H9  UNL     1      13.502   5.287  13.482  0.00  0.00    +0.292 HD
ENDBRANCH   8   9
BRANCH   6  11
ATOM     11  O3  UNL     1      15.585   1.182  16.315  0.00  0.00    -0.507 OA
ATOM     12  H10 UNL     1      15.878   0.515  15.670  0.00  0.00    +0.292 HD
ENDBRANCH   6  11
BRANCH   4  13
ATOM     13  O4  UNL     1      18.203   4.813  14.755  0.00  0.00    -0.506 OA
ATOM     14  H11 UNL     1      18.123   5.795  14.759  0.00  0.00    +0.292 HD
ENDBRANCH   4  13
ENDBRANCH   1   3
BRANCH   1  16
ATOM     15  C7  UNL     1      15.621   7.438  16.149  0.00  0.00    +0.012 C 
ATOM     16  C8  UNL     1      15.571   7.518  14.811  0.00  0.00    +0.052 C 
BRANCH  15  22
ATOM     17  C1  UNL     1      15.650   9.860  16.644  0.00  0.00    +0.011 A 
ATOM     18  C2  UNL     1      15.406  10.954  17.478  0.00  0.00    +0.046 A 
ATOM     19  C3  UNL     1      14.839  10.745  18.730  0.00  0.00    +0.117 A 
ATOM     20  C4  UNL     1      14.520   9.464  19.160  0.00  0.00    +0.046 A 
ATOM     21  C5  UNL     1      14.765   8.370  18.325  0.00  0.00    +0.011 A 
ATOM     22  C6  UNL     1      15.320   8.559  17.051  0.00  0.00    -0.025 A 
BRANCH  19  23
ATOM     23  O5  UNL     1      14.584  11.781  19.578  0.00  0.00    -0.507 OA
ATOM     24  H12 UNL     1      14.357  12.565  19.050  0.00  0.00    +0.292 HD
ENDBRANCH  19  23
ENDBRANCH  15  22
ENDBRANCH   1  16
TORSDOF 7
ENDMDL
MODEL 5
REMARK VINA RESULT:    -4.349      3.772      7.906
REMARK INTER + INTRA:          -6.407
REMARK INTER:                  -5.714
REMARK INTRA:                  -0.694
REMARK UNBOUND:                -0.787
REMARK  Name = data/mahkota_dewa_dn/results/docking/ligands/pdb/Naringeninchalcone.pdb
REMARK  7 active torsions:
REMARK  status: ('A' for Active; 'I' for Inactive)
REMARK    1  A    between atoms: C3_3  and  O5_20
REMARK    2  A    between atoms: C6_6  and  C7_7
REMARK    3  A    between atoms: C8_8  and  C9_9
REMARK    4  A    between atoms: C9_9  and  C10_11
REMARK    5  A    between atoms: C11_12  and  O4_19
REMARK    6  A    between atoms: C13_14  and  O3_18
REMARK    7  A    between atoms: C15_16  and  O2_17
REMARK                            x       y       z     vdW  Elec       q    Type
REMARK                         _______ _______ _______ _____ _____    ______ ____
ROOT
ATOM      1  C9  UNL     1      15.866   6.247  14.132  0.00  0.00    +0.193 C 
ATOM      2  O1  UNL     1      16.322   6.375  12.995  0.00  0.00    -0.287 OA
ENDROOT
BRANCH   1   3
ATOM      3  C10 UNL     1      15.826   4.888  14.732  0.00  0.00    +0.104 A 
ATOM      4  C11 UNL     1      14.579   4.239  14.813  0.00  0.00    +0.135 A 
ATOM      5  C12 UNL     1      14.465   2.949  15.333  0.00  0.00    +0.091 A 
ATOM      6  C13 UNL     1      15.602   2.308  15.804  0.00  0.00    +0.124 A 
ATOM      7  C14 UNL     1      16.843   2.937  15.773  0.00  0.00    +0.091 A 
ATOM      8  C15 UNL     1      16.953   4.228  15.246  0.00  0.00    +0.135 A 
BRANCH   8   9
ATOM      9  O2  UNL     1      18.175   4.841  15.276  0.00  0.00    -0.506 OA
ATOM     10  H9  UNL     1      18.423   5.024  16.199  0.00  0.00    +0.292 HD
ENDBRANCH   8   9
BRANCH   6  11
ATOM     11  O3  UNL     1      15.544   1.050  16.324  0.00  0.00    -0.507 OA
ATOM     12  H10 UNL     1      16.344   0.893  16.854  0.00  0.00    +0.292 HD
ENDBRANCH   6  11
BRANCH   4  13
ATOM     13  O4  UNL     1      13.406   4.816  14.395  0.00  0.00    -0.506 OA
ATOM     14  H11 UNL     1      13.416   4.840  13.411  0.00  0.00    +0.292 HD
ENDBRANCH   4  13
ENDBRANCH   1   3
BRANCH   1  16
ATOM     15  C7  UNL     1      15.933   7.564  16.192  0.00  0.00    +0.012 C 
ATOM     16  C8  UNL     1      15.459   7.424  14.945  0.00  0.00    +0.052 C 
BRANCH  15  22
ATOM     17  C1  UNL     1      14.917   8.425  18.275  0.00  0.00    +0.011 A 
ATOM     18  C2  UNL     1      14.555   9.465  19.136  0.00  0.00    +0.046 A 
ATOM     19  C3  UNL     1      14.866  10.776  18.792  0.00  0.00    +0.117 A 
ATOM     20  C4  UNL     1      15.526  11.060  17.604  0.00  0.00    +0.046 A 
ATOM     21  C5  UNL     1      15.887  10.020  16.744  0.00  0.00    +0.011 A 
ATOM     22  C6  UNL     1      15.598   8.688  17.077  0.00  0.00    -0.025 A 
BRANCH  19  23
ATOM     23  O5  UNL     1      14.533  11.821  19.600  0.00  0.00    -0.507 OA
ATOM     24  H12 UNL     1      15.339  12.150  20.030  0.00  0.00    +0.292 HD
ENDBRANCH  19  23
ENDBRANCH  15  22
ENDBRANCH   1  16
TORSDOF 7
ENDMDL
MODEL 6
REMARK VINA RESULT:    -4.249      0.983      2.381
REMARK INTER + INTRA:          -6.278
REMARK INTER:                  -5.602
REMARK INTRA:                  -0.676
REMARK UNBOUND:                -0.787
REMARK  Name = data/mahkota_dewa_dn/results/docking/ligands/pdb/Naringeninchalcone.pdb
REMARK  7 active torsions:
REMARK  status: ('A' for Active; 'I' for Inactive)
REMARK    1  A    between atoms: C3_3  and  O5_20
REMARK    2  A    between atoms: C6_6  and  C7_7
REMARK    3  A    between atoms: C8_8  and  C9_9
REMARK    4  A    between atoms: C9_9  and  C10_11
REMARK    5  A    between atoms: C11_12  and  O4_19
REMARK    6  A    between atoms: C13_14  and  O3_18
REMARK    7  A    between atoms: C15_16  and  O2_17
REMARK                            x       y       z     vdW  Elec       q    Type
REMARK                         _______ _______ _______ _____ _____    ______ ____
ROOT
ATOM      1  C9  UNL     1      14.342   2.747  14.704  0.00  0.00    +0.193 C 
ATOM      2  O1  UNL     1      13.604   2.033  15.386  0.00  0.00    -0.287 OA
ENDROOT
BRANCH   1   3
ATOM      3  C10 UNL     1      15.145   3.794  15.387  0.00  0.00    +0.104 A 
ATOM      4  C11 UNL     1      14.791   5.141  15.174  0.00  0.00    +0.135 A 
ATOM      5  C12 UNL     1      15.476   6.180  15.805  0.00  0.00    +0.091 A 
ATOM      6  C13 UNL     1      16.544   5.875  16.637  0.00  0.00    +0.124 A 
ATOM      7  C14 UNL     1      16.942   4.558  16.839  0.00  0.00    +0.091 A 
ATOM      8  C15 UNL     1      16.250   3.520  16.207  0.00  0.00    +0.135 A 
BRANCH   8   9
ATOM      9  O2  UNL     1      16.696   2.239  16.382  0.00  0.00    -0.506 OA
ATOM     10  H9  UNL     1      16.667   1.767  15.532  0.00  0.00    +0.292 HD
ENDBRANCH   8   9
BRANCH   6  11
ATOM     11  O3  UNL     1      17.248   6.853  17.275  0.00  0.00    -0.507 OA
ATOM     12  H10 UNL     1      18.152   6.533  17.439  0.00  0.00    +0.292 HD
ENDBRANCH   6  11
BRANCH   4  13
ATOM     13  O4  UNL     1      13.767   5.523  14.345  0.00  0.00    -0.506 OA
ATOM     14  H11 UNL     1      12.948   5.068  14.648  0.00  0.00    +0.292 HD
ENDBRANCH   4  13
ENDBRANCH   1   3
BRANCH   1  16
ATOM     15  C7  UNL     1      15.671   1.987  12.796  0.00  0.00    +0.012 C 
ATOM     16  C8  UNL     1      14.521   2.513  13.246  0.00  0.00    +0.052 C 
BRANCH  15  22
ATOM     17  C1  UNL     1      16.225   2.791  10.525  0.00  0.00    +0.011 A 
ATOM     18  C2  UNL     1      16.471   2.582   9.165  0.00  0.00    +0.046 A 
ATOM     19  C3  UNL     1      16.430   1.289   8.655  0.00  0.00    +0.117 A 
ATOM     20  C4  UNL     1      16.143   0.209   9.480  0.00  0.00    +0.046 A 
ATOM     21  C5  UNL     1      15.897   0.420  10.839  0.00  0.00    +0.011 A 
ATOM     22  C6  UNL     1      15.949   1.713  11.379  0.00  0.00    -0.025 A 
BRANCH  19  23
ATOM     23  O5  UNL     1      16.663   1.037   7.336  0.00  0.00    -0.507 OA
ATOM     24  H12 UNL     1      17.062   1.827   6.935  0.00  0.00    +0.292 HD
ENDBRANCH  19  23
ENDBRANCH  15  22
ENDBRANCH   1  16
TORSDOF 7
ENDMDL
MODEL 7
REMARK VINA RESULT:    -4.244      9.086     11.647
REMARK INTER + INTRA:          -6.271
REMARK INTER:                  -5.540
REMARK INTRA:                  -0.731
REMARK UNBOUND:                -0.787
REMARK  Name = data/mahkota_dewa_dn/results/docking/ligands/pdb/Naringeninchalcone.pdb
REMARK  7 active torsions:
REMARK  status: ('A' for Active; 'I' for Inactive)
REMARK    1  A    between atoms: C3_3  and  O5_20
REMARK    2  A    between atoms: C6_6  and  C7_7
REMARK    3  A    between atoms: C8_8  and  C9_9
REMARK    4  A    between atoms: C9_9  and  C10_11
REMARK    5  A    between atoms: C11_12  and  O4_19
REMARK    6  A    between atoms: C13_14  and  O3_18
REMARK    7  A    between atoms: C15_16  and  O2_17
REMARK                            x       y       z     vdW  Elec       q    Type
REMARK                         _______ _______ _______ _____ _____    ______ ____
ROOT
ATOM      1  C9  UNL     1      12.130  12.697   9.862  0.00  0.00    +0.193 C 
ATOM      2  O1  UNL     1      12.380  13.903   9.888  0.00  0.00    -0.287 OA
ENDROOT
BRANCH   1   3
ATOM      3  C10 UNL     1      11.208  12.186   8.815  0.00  0.00    +0.104 A 
ATOM      4  C11 UNL     1       9.823  12.310   9.037  0.00  0.00    +0.135 A 
ATOM      5  C12 UNL     1       8.894  11.884   8.086  0.00  0.00    +0.091 A 
ATOM      6  C13 UNL     1       9.351  11.301   6.912  0.00  0.00    +0.124 A 
ATOM      7  C14 UNL     1      10.711  11.130   6.679  0.00  0.00    +0.091 A 
ATOM      8  C15 UNL     1      11.638  11.563   7.633  0.00  0.00    +0.135 A 
BRANCH   8   9
ATOM      9  O2  UNL     1      12.966  11.334   7.400  0.00  0.00    -0.506 OA
ATOM     10  H9  UNL     1      13.319  12.034   6.824  0.00  0.00    +0.292 HD
ENDBRANCH   8   9
BRANCH   6  11
ATOM     11  O3  UNL     1       8.485  10.865   5.953  0.00  0.00    -0.507 OA
ATOM     12  H10 UNL     1       8.998  10.509   5.207  0.00  0.00    +0.292 HD
ENDBRANCH   6  11
BRANCH   4  13
ATOM     13  O4  UNL     1       9.294  12.848  10.183  0.00  0.00    -0.506 OA
ATOM     14  H11 UNL     1       8.320  12.925  10.058  0.00  0.00    +0.292 HD
ENDBRANCH   4  13
ENDBRANCH   1   3
BRANCH   1  16
ATOM     15  C7  UNL     1      12.170  10.622  11.158  0.00  0.00    +0.012 C 
ATOM     16  C8  UNL     1      12.806  11.742  10.780  0.00  0.00    +0.052 C 
BRANCH  15  22
ATOM     17  C1  UNL     1      13.224  10.019  13.310  0.00  0.00    +0.011 A 
ATOM     18  C2  UNL     1      13.804   9.099  14.188  0.00  0.00    +0.046 A 
ATOM     19  C3  UNL     1      13.919   7.768  13.804  0.00  0.00    +0.117 A 
ATOM     20  C4  UNL     1      13.469   7.347  12.560  0.00  0.00    +0.046 A 
ATOM     21  C5  UNL     1      12.889   8.268  11.683  0.00  0.00    +0.011 A 
ATOM     22  C6  UNL     1      12.748   9.613  12.055  0.00  0.00    -0.025 A 
BRANCH  19  23
ATOM     23  O5  UNL     1      14.478   6.836  14.626  0.00  0.00    -0.507 OA
ATOM     24  H12 UNL     1      15.343   7.163  14.922  0.00  0.00    +0.292 HD
ENDBRANCH  19  23
ENDBRANCH  15  22
ENDBRANCH   1  16
TORSDOF 7
ENDMDL
MODEL 8
REMARK VINA RESULT:    -4.192      4.042      6.633
REMARK INTER + INTRA:          -6.204
REMARK INTER:                  -5.382
REMARK INTRA:                  -0.822
REMARK UNBOUND:                -0.787
REMARK  Name = data/mahkota_dewa_dn/results/docking/ligands/pdb/Naringeninchalcone.pdb
REMARK  7 active torsions:
REMARK  status: ('A' for Active; 'I' for Inactive)
REMARK    1  A    between atoms: C3_3  and  O5_20
REMARK    2  A    between atoms: C6_6  and  C7_7
REMARK    3  A    between atoms: C8_8  and  C9_9
REMARK    4  A    between atoms: C9_9  and  C10_11
REMARK    5  A    between atoms: C11_12  and  O4_19
REMARK    6  A    between atoms: C13_14  and  O3_18
REMARK    7  A    between atoms: C15_16  and  O2_17
REMARK                            x       y       z     vdW  Elec       q    Type
REMARK                         _______ _______ _______ _____ _____    ______ ____
ROOT
ATOM      1  C9  UNL     1      15.577   8.465  15.556  0.00  0.00    +0.193 C 
ATOM      2  O1  UNL     1      15.124   9.177  14.659  0.00  0.00    -0.287 OA
ENDROOT
BRANCH   1   3
ATOM      3  C10 UNL     1      15.793   9.064  16.899  0.00  0.00    +0.104 A 
ATOM      4  C11 UNL     1      14.658   9.414  17.655  0.00  0.00    +0.135 A 
ATOM      5  C12 UNL     1      14.778   9.951  18.938  0.00  0.00    +0.091 A 
ATOM      6  C13 UNL     1      16.045  10.169  19.462  0.00  0.00    +0.124 A 
ATOM      7  C14 UNL     1      17.185   9.869  18.725  0.00  0.00    +0.091 A 
ATOM      8  C15 UNL     1      17.060   9.326  17.442  0.00  0.00    +0.135 A 
BRANCH   8   9
ATOM      9  O2  UNL     1      18.198   9.090  16.722  0.00  0.00    -0.506 OA
ATOM     10  H9  UNL     1      18.698   9.919  16.626  0.00  0.00    +0.292 HD
ENDBRANCH   8   9
BRANCH   6  11
ATOM     11  O3  UNL     1      16.216  10.694  20.708  0.00  0.00    -0.507 OA
ATOM     12  H10 UNL     1      16.161  11.663  20.650  0.00  0.00    +0.292 HD
ENDBRANCH   6  11
BRANCH   4  13
ATOM     13  O4  UNL     1      13.374   9.257  17.196  0.00  0.00    -0.506 OA
ATOM     14  H11 UNL     1      13.301   9.736  16.339  0.00  0.00    +0.292 HD
ENDBRANCH   4  13
ENDBRANCH   1   3
BRANCH   1  16
ATOM     15  C7  UNL     1      15.614   6.158  16.371  0.00  0.00    +0.012 C 
ATOM     16  C8  UNL     1      15.810   7.010  15.353  0.00  0.00    +0.052 C 
BRANCH  15  22
ATOM     17  C1  UNL     1      16.868   4.120  16.988  0.00  0.00    +0.011 A 
ATOM     18  C2  UNL     1      17.109   2.745  16.909  0.00  0.00    +0.046 A 
ATOM     19  C3  UNL     1      16.296   1.954  16.106  0.00  0.00    +0.117 A 
ATOM     20  C4  UNL     1      15.254   2.516  15.380  0.00  0.00    +0.046 A 
ATOM     21  C5  UNL     1      15.014   3.890  15.460  0.00  0.00    +0.011 A 
ATOM     22  C6  UNL     1      15.811   4.705  16.277  0.00  0.00    -0.025 A 
BRANCH  19  23
ATOM     23  O5  UNL     1      16.494   0.610  15.997  0.00  0.00    -0.507 OA
ATOM     24  H12 UNL     1      15.634   0.180  15.858  0.00  0.00    +0.292 HD
ENDBRANCH  19  23
ENDBRANCH  15  22
ENDBRANCH   1  16
TORSDOF 7
ENDMDL
MODEL 9
REMARK VINA RESULT:    -4.038      3.944      8.406
REMARK INTER + INTRA:          -6.005
REMARK INTER:                  -5.423
REMARK INTRA:                  -0.582
REMARK UNBOUND:                -0.787
REMARK  Name = data/mahkota_dewa_dn/results/docking/ligands/pdb/Naringeninchalcone.pdb
REMARK  7 active torsions:
REMARK  status: ('A' for Active; 'I' for Inactive)
REMARK    1  A    between atoms: C3_3  and  O5_20
REMARK    2  A    between atoms: C6_6  and  C7_7
REMARK    3  A    between atoms: C8_8  and  C9_9
REMARK    4  A    between atoms: C9_9  and  C10_11
REMARK    5  A    between atoms: C11_12  and  O4_19
REMARK    6  A    between atoms: C13_14  and  O3_18
REMARK    7  A    between atoms: C15_16  and  O2_17
REMARK                            x       y       z     vdW  Elec       q    Type
REMARK                         _______ _______ _______ _____ _____    ______ ____
ROOT
ATOM      1  C9  UNL     1      18.278   2.358  17.304  0.00  0.00    +0.193 C 
ATOM      2  O1  UNL     1      19.374   2.526  16.766  0.00  0.00    -0.287 OA
ENDROOT
BRANCH   1   3
ATOM      3  C10 UNL     1      17.064   2.872  16.617  0.00  0.00    +0.104 A 
ATOM      4  C11 UNL     1      16.771   4.244  16.735  0.00  0.00    +0.135 A 
ATOM      5  C12 UNL     1      15.668   4.808  16.092  0.00  0.00    +0.091 A 
ATOM      6  C13 UNL     1      14.831   3.990  15.346  0.00  0.00    +0.124 A 
ATOM      7  C14 UNL     1      15.072   2.625  15.241  0.00  0.00    +0.091 A 
ATOM      8  C15 UNL     1      16.182   2.065  15.883  0.00  0.00    +0.135 A 
BRANCH   8   9
ATOM      9  O2  UNL     1      16.364   0.712  15.805  0.00  0.00    -0.506 OA
ATOM     10  H9  UNL     1      15.500   0.272  15.732  0.00  0.00    +0.292 HD
ENDBRANCH   8   9
BRANCH   6  11
ATOM     11  O3  UNL     1      13.739   4.491  14.702  0.00  0.00    -0.507 OA
ATOM     12  H10 UNL     1      13.740   5.460  14.792  0.00  0.00    +0.292 HD
ENDBRANCH   6  11
BRANCH   4  13
ATOM     13  O4  UNL     1      17.533   5.111  17.477  0.00  0.00    -0.506 OA
ATOM     14  H11 UNL     1      18.138   4.575  18.038  0.00  0.00    +0.292 HD
ENDBRANCH   4  13
ENDBRANCH   1   3
BRANCH   1  16
ATOM     15  C7  UNL     1      19.011   0.584  18.820  0.00  0.00    +0.012 C 
ATOM     16  C8  UNL     1      18.138   1.567  18.555  0.00  0.00    +0.052 C 
BRANCH  15  22
ATOM     17  C1  UNL     1      17.980  -1.247  20.121  0.00  0.00    +0.011 A 
ATOM     18  C2  UNL     1      17.881  -2.051  21.260  0.00  0.00    +0.046 A 
ATOM     19  C3  UNL     1      18.765  -1.852  22.315  0.00  0.00    +0.117 A 
ATOM     20  C4  UNL     1      19.737  -0.863  22.250  0.00  0.00    +0.046 A 
ATOM     21  C5  UNL     1      19.835  -0.060  21.111  0.00  0.00    +0.011 A 
ATOM     22  C6  UNL     1      18.965  -0.253  20.027  0.00  0.00    -0.025 A 
BRANCH  19  23
ATOM     23  O5  UNL     1      18.706  -2.611  23.446  0.00  0.00    -0.507 OA
ATOM     24  H12 UNL     1      18.933  -2.052  24.207  0.00  0.00    +0.292 HD
ENDBRANCH  19  23
ENDBRANCH  15  22
ENDBRANCH   1  16
TORSDOF 7
ENDMDL
