MODEL 1
REMARK VINA RESULT:    -4.971      0.000      0.000
REMARK INTER + INTRA:          -6.139
REMARK INTER:                  -5.843
REMARK INTRA:                  -0.295
REMARK UNBOUND:                -0.295
REMARK  Name = data/mahkota_dewa_dn/results/docking/ligands/pdb/Kaempferol.pdb
REMARK  5 active torsions:
REMARK  status: ('A' for Active; 'I' for Inactive)
REMARK    1  A    between atoms: C3_3  and  O6_21
REMARK    2  A    between atoms: C6_6  and  C7_7
REMARK    3  A    between atoms: C8_8  and  O5_20
REMARK    4  A    between atoms: C11_12  and  O4_19
REMARK    5  A    between atoms: C13_14  and  O3_18
REMARK                            x       y       z     vdW  Elec       q    Type
REMARK                         _______ _______ _______ _____ _____    ______ ____
ROOT
ATOM      1  C7  UNL     1      11.896  10.917   9.792  0.00  0.00    +0.181 A 
ATOM      2  C8  UNL     1      12.679  11.870  10.332  0.00  0.00    +0.208 A 
ATOM      3  C9  UNL     1      13.509  11.520  11.509  0.00  0.00    +0.238 A 
ATOM      4  O1  UNL     1      14.241  12.362  12.027  0.00  0.00    -0.283 OA
ATOM      5  C10 UNL     1      13.419  10.151  12.019  0.00  0.00    +0.109 A 
ATOM      6  C11 UNL     1      14.155   9.729  13.129  0.00  0.00    +0.135 A 
ATOM      7  C12 UNL     1      14.039   8.417  13.582  0.00  0.00    +0.091 A 
ATOM      8  C13 UNL     1      13.188   7.537  12.921  0.00  0.00    +0.124 A 
ATOM      9  C14 UNL     1      12.450   7.946  11.813  0.00  0.00    +0.092 A 
ATOM     10  C15 UNL     1      12.570   9.262  11.364  0.00  0.00    +0.147 A 
ATOM     11  O2  UNL     1      11.823   9.613  10.268  0.00  0.00    -0.451 OA
ENDROOT
BRANCH   1  17
ATOM     12  C1  UNL     1       9.742  11.662   8.782  0.00  0.00    +0.015 A 
ATOM     13  C2  UNL     1       8.922  11.912   7.678  0.00  0.00    +0.046 A 
ATOM     14  C3  UNL     1       9.393  11.654   6.398  0.00  0.00    +0.117 A 
ATOM     15  C4  UNL     1      10.675  11.153   6.201  0.00  0.00    +0.046 A 
ATOM     16  C5  UNL     1      11.495  10.905   7.307  0.00  0.00    +0.015 A 
ATOM     17  C6  UNL     1      11.037  11.148   8.611  0.00  0.00    +0.021 A 
BRANCH  14  18
ATOM     18  O6  UNL     1       8.561  11.911   5.350  0.00  0.00    -0.507 OA
ATOM     19  H10 UNL     1       7.646  11.748   5.634  0.00  0.00    +0.292 HD
ENDBRANCH  14  18
ENDBRANCH   1  17
BRANCH   8  20
ATOM     20  O3  UNL     1      13.103   6.261  13.397  0.00  0.00    -0.507 OA
ATOM     21  H7  UNL     1      13.383   5.640  12.705  0.00  0.00    +0.292 HD
ENDBRANCH   8  20
BRANCH   6  22
ATOM     22  O4  UNL     1      15.006  10.550  13.816  0.00  0.00    -0.506 OA
ATOM     23  H8  UNL     1      14.570  10.825  14.653  0.00  0.00    +0.292 HD
ENDBRANCH   6  22
BRANCH   2  24
ATOM     24  O5  UNL     1      12.783  13.162   9.852  0.00  0.00    -0.501 OA
ATOM     25  H9  UNL     1      13.109  13.072   8.932  0.00  0.00    +0.292 HD
ENDBRANCH   2  24
TORSDOF 5
ENDMDL
MODEL 2
REMARK VINA RESULT:    -4.777      6.678      9.372
REMARK INTER + INTRA:          -5.911
REMARK INTER:                  -5.613
REMARK INTRA:                  -0.298
REMARK UNBOUND:                -0.295
REMARK  Name = data/mahkota_dewa_dn/results/docking/ligands/pdb/Kaempferol.pdb
REMARK  5 active torsions:
REMARK  status: ('A' for Active; 'I' for Inactive)
REMARK    1  A    between atoms: C3_3  and  O6_21
REMARK    2  A    between atoms: C6_6  and  C7_7
REMARK    3  A    between atoms: C8_8  and  O5_20
REMARK    4  A    between atoms: C11_12  and  O4_19
REMARK    5  A    between atoms: C13_14  and  O3_18
REMARK                            x       y       z     vdW  Elec       q    Type
REMARK                         _______ _______ _______ _____ _____    ______ ____
ROOT
ATOM      1  C7  UNL     1      15.468   7.417  16.349  0.00  0.00    +0.181 A 
ATOM      2  C8  UNL     1      15.185   7.776  15.083  0.00  0.00    +0.208 A 
ATOM      3  C9  UNL     1      14.927   6.711  14.086  0.00  0.00    +0.238 A 
ATOM      4  O1  UNL     1      14.660   6.999  12.921  0.00  0.00    -0.283 OA
ATOM      5  C10 UNL     1      15.003   5.323  14.544  0.00  0.00    +0.109 A 
ATOM      6  C11 UNL     1      14.784   4.249  13.676  0.00  0.00    +0.135 A 
ATOM      7  C12 UNL     1      14.867   2.943  14.153  0.00  0.00    +0.091 A 
ATOM      8  C13 UNL     1      15.167   2.720  15.493  0.00  0.00    +0.124 A 
ATOM      9  C14 UNL     1      15.387   3.782  16.367  0.00  0.00    +0.092 A 
ATOM     10  C15 UNL     1      15.303   5.089  15.883  0.00  0.00    +0.147 A 
ATOM     11  O2  UNL     1      15.525   6.099  16.786  0.00  0.00    -0.451 OA
ENDROOT
BRANCH   1  17
ATOM     12  C1  UNL     1      14.656   8.931  18.156  0.00  0.00    +0.015 A 
ATOM     13  C2  UNL     1      14.880   9.836  19.197  0.00  0.00    +0.046 A 
ATOM     14  C3  UNL     1      16.180  10.203  19.521  0.00  0.00    +0.117 A 
ATOM     15  C4  UNL     1      17.261   9.677  18.823  0.00  0.00    +0.046 A 
ATOM     16  C5  UNL     1      17.035   8.771  17.782  0.00  0.00    +0.015 A 
ATOM     17  C6  UNL     1      15.730   8.393  17.429  0.00  0.00    +0.021 A 
BRANCH  14  18
ATOM     18  O6  UNL     1      16.354  11.088  20.543  0.00  0.00    -0.507 OA
ATOM     19  H10 UNL     1      16.148  10.639  21.379  0.00  0.00    +0.292 HD
ENDBRANCH  14  18
ENDBRANCH   1  17
BRANCH   8  20
ATOM     20  O3  UNL     1      15.239   1.426  15.919  0.00  0.00    -0.507 OA
ATOM     21  H7  UNL     1      15.464   1.410  16.864  0.00  0.00    +0.292 HD
ENDBRANCH   8  20
BRANCH   6  22
ATOM     22  O4  UNL     1      14.485   4.409  12.351  0.00  0.00    -0.506 OA
ATOM     23  H8  UNL     1      14.970   5.194  12.012  0.00  0.00    +0.292 HD
ENDBRANCH   6  22
BRANCH   2  24
ATOM     24  O5  UNL     1      15.098   9.084  14.642  0.00  0.00    -0.501 OA
ATOM     25  H9  UNL     1      15.574   9.617  15.313  0.00  0.00    +0.292 HD
ENDBRANCH   2  24
TORSDOF 5
ENDMDL
MODEL 3
REMARK VINA RESULT:    -4.686      7.866     10.498
REMARK INTER + INTRA:          -5.803
REMARK INTER:                  -5.571
REMARK INTRA:                  -0.232
REMARK UNBOUND:                -0.295
REMARK  Name = data/mahkota_dewa_dn/results/docking/ligands/pdb/Kaempferol.pdb
REMARK  5 active torsions:
REMARK  status: ('A' for Active; 'I' for Inactive)
REMARK    1  A    between atoms: C3_3  and  O6_21
REMARK    2  A    between atoms: C6_6  and  C7_7
REMARK    3  A    between atoms: C8_8  and  O5_20
REMARK    4  A    between atoms: C11_12  and  O4_19
REMARK    5  A    between atoms: C13_14  and  O3_18
REMARK                            x       y       z     vdW  Elec       q    Type
REMARK                         _______ _______ _______ _____ _____    ______ ____
ROOT
ATOM      1  C7  UNL     1      15.844   5.511  16.859  0.00  0.00    +0.181 A 
ATOM      2  C8  UNL     1      15.249   4.738  15.931  0.00  0.00    +0.208 A 
ATOM      3  C9  UNL     1      15.669   3.322  15.814  0.00  0.00    +0.238 A 
ATOM      4  O1  UNL     1      15.146   2.584  14.981  0.00  0.00    -0.283 OA
ATOM      5  C10 UNL     1      16.717   2.850  16.720  0.00  0.00    +0.109 A 
ATOM      6  C11 UNL     1      17.186   1.534  16.681  0.00  0.00    +0.135 A 
ATOM      7  C12 UNL     1      18.185   1.126  17.560  0.00  0.00    +0.091 A 
ATOM      8  C13 UNL     1      18.708   2.036  18.474  0.00  0.00    +0.124 A 
ATOM      9  C14 UNL     1      18.248   3.350  18.523  0.00  0.00    +0.092 A 
ATOM     10  C15 UNL     1      17.247   3.753  17.638  0.00  0.00    +0.147 A 
ATOM     11  O2  UNL     1      16.828   5.057  17.729  0.00  0.00    -0.451 OA
ENDROOT
BRANCH   1  17
ATOM     12  C1  UNL     1      14.867   7.323  18.267  0.00  0.00    +0.015 A 
ATOM     13  C2  UNL     1      14.553   8.664  18.502  0.00  0.00    +0.046 A 
ATOM     14  C3  UNL     1      14.871   9.622  17.549  0.00  0.00    +0.117 A 
ATOM     15  C4  UNL     1      15.502   9.263  16.363  0.00  0.00    +0.046 A 
ATOM     16  C5  UNL     1      15.817   7.921  16.130  0.00  0.00    +0.015 A 
ATOM     17  C6  UNL     1      15.497   6.932  17.074  0.00  0.00    +0.021 A 
BRANCH  14  18
ATOM     18  O6  UNL     1      14.546  10.918  17.818  0.00  0.00    -0.507 OA
ATOM     19  H10 UNL     1      15.345  11.463  17.727  0.00  0.00    +0.292 HD
ENDBRANCH  14  18
ENDBRANCH   1  17
BRANCH   8  20
ATOM     20  O3  UNL     1      19.686   1.596  19.318  0.00  0.00    -0.507 OA
ATOM     21  H7  UNL     1      19.278   1.172  20.090  0.00  0.00    +0.292 HD
ENDBRANCH   8  20
BRANCH   6  22
ATOM     22  O4  UNL     1      16.708   0.597  15.806  0.00  0.00    -0.506 OA
ATOM     23  H8  UNL     1      17.037  -0.287  16.081  0.00  0.00    +0.292 HD
ENDBRANCH   6  22
BRANCH   2  24
ATOM     24  O5  UNL     1      14.250   5.170  15.078  0.00  0.00    -0.501 OA
ATOM     25  H9  UNL     1      14.714   5.514  14.287  0.00  0.00    +0.292 HD
ENDBRANCH   2  24
TORSDOF 5
ENDMDL
MODEL 4
REMARK VINA RESULT:    -4.533      3.536      6.507
REMARK INTER + INTRA:          -5.623
REMARK INTER:                  -5.351
REMARK INTRA:                  -0.272
REMARK UNBOUND:                -0.295
REMARK  Name = data/mahkota_dewa_dn/results/docking/ligands/pdb/Kaempferol.pdb
REMARK  5 active torsions:
REMARK  status: ('A' for Active; 'I' for Inactive)
REMARK    1  A    between atoms: C3_3  and  O6_21
REMARK    2  A    between atoms: C6_6  and  C7_7
REMARK    3  A    between atoms: C8_8  and  O5_20
REMARK    4  A    between atoms: C11_12  and  O4_19
REMARK    5  A    between atoms: C13_14  and  O3_18
REMARK                            x       y       z     vdW  Elec       q    Type
REMARK                         _______ _______ _______ _____ _____    ______ ____
ROOT
ATOM      1  C7  UNL     1      13.882  12.402   8.030  0.00  0.00    +0.181 A 
ATOM      2  C8  UNL     1      13.504  12.479   9.320  0.00  0.00    +0.208 A 
ATOM      3  C9  UNL     1      12.070  12.303   9.648  0.00  0.00    +0.238 A 
ATOM      4  O1  UNL     1      11.686  12.362  10.815  0.00  0.00    -0.283 OA
ATOM      5  C10 UNL     1      11.146  12.060   8.539  0.00  0.00    +0.109 A 
ATOM      6  C11 UNL     1       9.774  11.891   8.747  0.00  0.00    +0.135 A 
ATOM      7  C12 UNL     1       8.930  11.663   7.664  0.00  0.00    +0.091 A 
ATOM      8  C13 UNL     1       9.463  11.606   6.379  0.00  0.00    +0.124 A 
ATOM      9  C14 UNL     1      10.828  11.773   6.160  0.00  0.00    +0.092 A 
ATOM     10  C15 UNL     1      11.670  12.001   7.250  0.00  0.00    +0.147 A 
ATOM     11  O2  UNL     1      13.006  12.156   6.979  0.00  0.00    -0.451 OA
ENDROOT
BRANCH   1  17
ATOM     12  C1  UNL     1      15.860  13.827   7.504  0.00  0.00    +0.015 A 
ATOM     13  C2  UNL     1      17.191  13.987   7.113  0.00  0.00    +0.046 A 
ATOM     14  C3  UNL     1      17.958  12.871   6.806  0.00  0.00    +0.117 A 
ATOM     15  C4  UNL     1      17.416  11.593   6.888  0.00  0.00    +0.046 A 
ATOM     16  C5  UNL     1      16.083  11.434   7.282  0.00  0.00    +0.015 A 
ATOM     17  C6  UNL     1      15.285  12.548   7.587  0.00  0.00    +0.021 A 
BRANCH  14  18
ATOM     18  O6  UNL     1      19.251  13.072   6.428  0.00  0.00    -0.507 OA
ATOM     19  H10 UNL     1      19.734  13.467   7.173  0.00  0.00    +0.292 HD
ENDBRANCH  14  18
ENDBRANCH   1  17
BRANCH   8  20
ATOM     20  O3  UNL     1       8.602  11.381   5.345  0.00  0.00    -0.507 OA
ATOM     21  H7  UNL     1       8.459  12.209   4.859  0.00  0.00    +0.292 HD
ENDBRANCH   8  20
BRANCH   6  22
ATOM     22  O4  UNL     1       9.196  11.937   9.986  0.00  0.00    -0.506 OA
ATOM     23  H8  UNL     1       8.286  11.571   9.922  0.00  0.00    +0.292 HD
ENDBRANCH   6  22
BRANCH   2  24
ATOM     24  O5  UNL     1      14.369  12.694  10.376  0.00  0.00    -0.501 OA
ATOM     25  H9  UNL     1      13.946  12.266  11.150  0.00  0.00    +0.292 HD
ENDBRANCH   2  24
TORSDOF 5
ENDMDL
MODEL 5
REMARK VINA RESULT:    -4.417      8.228      9.946
REMARK INTER + INTRA:          -5.487
REMARK INTER:                  -5.200
REMARK INTRA:                  -0.286
REMARK UNBOUND:                -0.295
REMARK  Name = data/mahkota_dewa_dn/results/docking/ligands/pdb/Kaempferol.pdb
REMARK  5 active torsions:
REMARK  status: ('A' for Active; 'I' for Inactive)
REMARK    1  A    between atoms: C3_3  and  O6_21
REMARK    2  A    between atoms: C6_6  and  C7_7
REMARK    3  A    between atoms: C8_8  and  O5_20
REMARK    4  A    between atoms: C11_12  and  O4_19
REMARK    5  A    between atoms: C13_14  and  O3_18
REMARK                            x       y       z     vdW  Elec       q    Type
REMARK                         _______ _______ _______ _____ _____    ______ ____
ROOT
ATOM      1  C7  UNL     1      15.900   6.323  17.047  0.00  0.00    +0.181 A 
ATOM      2  C8  UNL     1      16.776   5.531  17.694  0.00  0.00    +0.208 A 
ATOM      3  C9  UNL     1      16.979   4.149  17.200  0.00  0.00    +0.238 A 
ATOM      4  O1  UNL     1      17.773   3.397  17.761  0.00  0.00    -0.283 OA
ATOM      5  C10 UNL     1      16.205   3.728  16.031  0.00  0.00    +0.109 A 
ATOM      6  C11 UNL     1      16.321   2.442  15.496  0.00  0.00    +0.135 A 
ATOM      7  C12 UNL     1      15.565   2.081  14.384  0.00  0.00    +0.091 A 
ATOM      8  C13 UNL     1      14.698   3.009  13.814  0.00  0.00    +0.124 A 
ATOM      9  C14 UNL     1      14.574   4.293  14.338  0.00  0.00    +0.092 A 
ATOM     10  C15 UNL     1      15.335   4.649  15.453  0.00  0.00    +0.147 A 
ATOM     11  O2  UNL     1      15.177   5.926  15.928  0.00  0.00    -0.451 OA
ENDROOT
BRANCH   1  17
ATOM     12  C1  UNL     1      14.734   7.985  18.494  0.00  0.00    +0.015 A 
ATOM     13  C2  UNL     1      14.479   9.297  18.902  0.00  0.00    +0.046 A 
ATOM     14  C3  UNL     1      15.119  10.352  18.266  0.00  0.00    +0.117 A 
ATOM     15  C4  UNL     1      16.015  10.118  17.228  0.00  0.00    +0.046 A 
ATOM     16  C5  UNL     1      16.269   8.804  16.822  0.00  0.00    +0.015 A 
ATOM     17  C6  UNL     1      15.627   7.721  17.443  0.00  0.00    +0.021 A 
BRANCH  14  18
ATOM     18  O6  UNL     1      14.842  11.616  18.694  0.00  0.00    -0.507 OA
ATOM     19  H10 UNL     1      13.881  11.700  18.808  0.00  0.00    +0.292 HD
ENDBRANCH  14  18
ENDBRANCH   1  17
BRANCH   8  20
ATOM     20  O3  UNL     1      13.975   2.615  12.726  0.00  0.00    -0.507 OA
ATOM     21  H7  UNL     1      13.974   1.645  12.674  0.00  0.00    +0.292 HD
ENDBRANCH   8  20
BRANCH   6  22
ATOM     22  O4  UNL     1      17.156   1.491  16.015  0.00  0.00    -0.506 OA
ATOM     23  H8  UNL     1      18.052   1.615  15.629  0.00  0.00    +0.292 HD
ENDBRANCH   6  22
BRANCH   2  24
ATOM     24  O5  UNL     1      17.522   5.922  18.790  0.00  0.00    -0.501 OA
ATOM     25  H9  UNL     1      18.108   5.163  18.991  0.00  0.00    +0.292 HD
ENDBRANCH   2  24
TORSDOF 5
ENDMDL
MODEL 6
REMARK VINA RESULT:    -4.402      3.525      8.494
REMARK INTER + INTRA:          -5.469
REMARK INTER:                  -5.330
REMARK INTRA:                  -0.139
REMARK UNBOUND:                -0.295
REMARK  Name = data/mahkota_dewa_dn/results/docking/ligands/pdb/Kaempferol.pdb
REMARK  5 active torsions:
REMARK  status: ('A' for Active; 'I' for Inactive)
REMARK    1  A    between atoms: C3_3  and  O6_21
REMARK    2  A    between atoms: C6_6  and  C7_7
REMARK    3  A    between atoms: C8_8  and  O5_20
REMARK    4  A    between atoms: C11_12  and  O4_19
REMARK    5  A    between atoms: C13_14  and  O3_18
REMARK                            x       y       z     vdW  Elec       q    Type
REMARK                         _______ _______ _______ _____ _____    ______ ____
ROOT
ATOM      1  C7  UNL     1      14.887   6.180  14.415  0.00  0.00    +0.181 A 
ATOM      2  C8  UNL     1      15.258   7.279  15.099  0.00  0.00    +0.208 A 
ATOM      3  C9  UNL     1      14.750   8.597  14.650  0.00  0.00    +0.238 A 
ATOM      4  O1  UNL     1      15.062   9.623  15.252  0.00  0.00    -0.283 OA
ATOM      5  C10 UNL     1      13.875   8.621  13.477  0.00  0.00    +0.109 A 
ATOM      6  C11 UNL     1      13.353   9.816  12.972  0.00  0.00    +0.135 A 
ATOM      7  C12 UNL     1      12.525   9.794  11.853  0.00  0.00    +0.091 A 
ATOM      8  C13 UNL     1      12.223   8.578  11.247  0.00  0.00    +0.124 A 
ATOM      9  C14 UNL     1      12.737   7.382  11.741  0.00  0.00    +0.092 A 
ATOM     10  C15 UNL     1      13.567   7.409  12.863  0.00  0.00    +0.147 A 
ATOM     11  O2  UNL     1      14.043   6.203  13.310  0.00  0.00    -0.451 OA
ENDROOT
BRANCH   1  17
ATOM     12  C1  UNL     1      14.359   3.825  15.039  0.00  0.00    +0.015 A 
ATOM     13  C2  UNL     1      14.746   2.521  15.361  0.00  0.00    +0.046 A 
ATOM     14  C3  UNL     1      16.095   2.198  15.419  0.00  0.00    +0.117 A 
ATOM     15  C4  UNL     1      17.067   3.157  15.158  0.00  0.00    +0.046 A 
ATOM     16  C5  UNL     1      16.678   4.461  14.835  0.00  0.00    +0.015 A 
ATOM     17  C6  UNL     1      15.321   4.815  14.779  0.00  0.00    +0.021 A 
BRANCH  14  18
ATOM     18  O6  UNL     1      16.429   0.915  15.737  0.00  0.00    -0.507 OA
ATOM     19  H10 UNL     1      17.342   0.906  16.067  0.00  0.00    +0.292 HD
ENDBRANCH  14  18
ENDBRANCH   1  17
BRANCH   8  20
ATOM     20  O3  UNL     1      11.409   8.601  10.153  0.00  0.00    -0.507 OA
ATOM     21  H7  UNL     1      11.497   7.764   9.668  0.00  0.00    +0.292 HD
ENDBRANCH   8  20
BRANCH   6  22
ATOM     22  O4  UNL     1      13.615  11.037  13.528  0.00  0.00    -0.506 OA
ATOM     23  H8  UNL     1      14.575  11.088  13.737  0.00  0.00    +0.292 HD
ENDBRANCH   6  22
BRANCH   2  24
ATOM     24  O5  UNL     1      16.073   7.267  16.216  0.00  0.00    -0.501 OA
ATOM     25  H9  UNL     1      15.463   7.272  16.983  0.00  0.00    +0.292 HD
ENDBRANCH   2  24
TORSDOF 5
ENDMDL
MODEL 7
REMARK VINA RESULT:    -4.331      1.404      3.145
REMARK INTER + INTRA:          -5.386
REMARK INTER:                  -5.114
REMARK INTRA:                  -0.272
REMARK UNBOUND:                -0.295
REMARK  Name = data/mahkota_dewa_dn/results/docking/ligands/pdb/Kaempferol.pdb
REMARK  5 active torsions:
REMARK  status: ('A' for Active; 'I' for Inactive)
REMARK    1  A    between atoms: C3_3  and  O6_21
REMARK    2  A    between atoms: C6_6  and  C7_7
REMARK    3  A    between atoms: C8_8  and  O5_20
REMARK    4  A    between atoms: C11_12  and  O4_19
REMARK    5  A    between atoms: C13_14  and  O3_18
REMARK                            x       y       z     vdW  Elec       q    Type
REMARK                         _______ _______ _______ _____ _____    ______ ____
ROOT
ATOM      1  C7  UNL     1      12.231  10.499   9.501  0.00  0.00    +0.181 A 
ATOM      2  C8  UNL     1      12.162   9.342  10.187  0.00  0.00    +0.208 A 
ATOM      3  C9  UNL     1      13.126   9.116  11.289  0.00  0.00    +0.238 A 
ATOM      4  O1  UNL     1      13.092   8.075  11.943  0.00  0.00    -0.283 OA
ATOM      5  C10 UNL     1      14.103  10.172  11.562  0.00  0.00    +0.109 A 
ATOM      6  C11 UNL     1      15.058  10.047  12.575  0.00  0.00    +0.135 A 
ATOM      7  C12 UNL     1      15.970  11.075  12.800  0.00  0.00    +0.091 A 
ATOM      8  C13 UNL     1      15.921  12.220  12.010  0.00  0.00    +0.124 A 
ATOM      9  C14 UNL     1      14.975  12.355  10.998  0.00  0.00    +0.092 A 
ATOM     10  C15 UNL     1      14.062  11.322  10.777  0.00  0.00    +0.147 A 
ATOM     11  O2  UNL     1      13.149  11.506   9.770  0.00  0.00    -0.451 OA
ENDROOT
BRANCH   1  17
ATOM     12  C1  UNL     1      10.015  11.290   8.674  0.00  0.00    +0.015 A 
ATOM     13  C2  UNL     1       9.140  11.640   7.643  0.00  0.00    +0.046 A 
ATOM     14  C3  UNL     1       9.560  11.544   6.322  0.00  0.00    +0.117 A 
ATOM     15  C4  UNL     1      10.843  11.107   6.015  0.00  0.00    +0.046 A 
ATOM     16  C5  UNL     1      11.718  10.758   7.049  0.00  0.00    +0.015 A 
ATOM     17  C6  UNL     1      11.314  10.837   8.391  0.00  0.00    +0.021 A 
BRANCH  14  18
ATOM     18  O6  UNL     1       8.674  11.894   5.347  0.00  0.00    -0.507 OA
ATOM     19  H10 UNL     1       8.188  12.683   5.639  0.00  0.00    +0.292 HD
ENDBRANCH  14  18
ENDBRANCH   1  17
BRANCH   8  20
ATOM     20  O3  UNL     1      16.833  13.203  12.263  0.00  0.00    -0.507 OA
ATOM     21  H7  UNL     1      17.605  13.082  11.687  0.00  0.00    +0.292 HD
ENDBRANCH   8  20
BRANCH   6  22
ATOM     22  O4  UNL     1      15.152   8.946  13.381  0.00  0.00    -0.506 OA
ATOM     23  H8  UNL     1      14.360   8.382  13.235  0.00  0.00    +0.292 HD
ENDBRANCH   6  22
BRANCH   2  24
ATOM     24  O5  UNL     1      11.236   8.344   9.948  0.00  0.00    -0.501 OA
ATOM     25  H9  UNL     1      10.994   7.997  10.832  0.00  0.00    +0.292 HD
ENDBRANCH   2  24
TORSDOF 5
ENDMDL
MODEL 8
REMARK VINA RESULT:    -4.322      5.791      9.084
REMARK INTER + INTRA:          -5.375
REMARK INTER:                  -5.182
REMARK INTRA:                  -0.193
REMARK UNBOUND:                -0.295
REMARK  Name = data/mahkota_dewa_dn/results/docking/ligands/pdb/Kaempferol.pdb
REMARK  5 active torsions:
REMARK  status: ('A' for Active; 'I' for Inactive)
REMARK    1  A    between atoms: C3_3  and  O6_21
REMARK    2  A    between atoms: C6_6  and  C7_7
REMARK    3  A    between atoms: C8_8  and  O5_20
REMARK    4  A    between atoms: C11_12  and  O4_19
REMARK    5  A    between atoms: C13_14  and  O3_18
REMARK                            x       y       z     vdW  Elec       q    Type
REMARK                         _______ _______ _______ _____ _____    ______ ____
ROOT
ATOM      1  C7  UNL     1      15.511   6.091  15.479  0.00  0.00    +0.181 A 
ATOM      2  C8  UNL     1      14.674   5.141  15.018  0.00  0.00    +0.208 A 
ATOM      3  C9  UNL     1      14.932   3.731  15.390  0.00  0.00    +0.238 A 
ATOM      4  O1  UNL     1      14.188   2.835  14.993  0.00  0.00    -0.283 OA
ATOM      5  C10 UNL     1      16.093   3.455  16.238  0.00  0.00    +0.109 A 
ATOM      6  C11 UNL     1      16.424   2.156  16.635  0.00  0.00    +0.135 A 
ATOM      7  C12 UNL     1      17.538   1.938  17.441  0.00  0.00    +0.091 A 
ATOM      8  C13 UNL     1      18.314   3.021  17.845  0.00  0.00    +0.124 A 
ATOM      9  C14 UNL     1      17.994   4.319  17.457  0.00  0.00    +0.092 A 
ATOM     10  C15 UNL     1      16.876   4.532  16.648  0.00  0.00    +0.147 A 
ATOM     11  O2  UNL     1      16.604   5.830  16.296  0.00  0.00    -0.451 OA
ENDROOT
BRANCH   1  17
ATOM     12  C1  UNL     1      15.514   7.995  13.868  0.00  0.00    +0.015 A 
ATOM     13  C2  UNL     1      15.337   9.346  13.561  0.00  0.00    +0.046 A 
ATOM     14  C3  UNL     1      14.984  10.239  14.563  0.00  0.00    +0.117 A 
ATOM     15  C4  UNL     1      14.800   9.804  15.871  0.00  0.00    +0.046 A 
ATOM     16  C5  UNL     1      14.977   8.450  16.177  0.00  0.00    +0.015 A 
ATOM     17  C6  UNL     1      15.344   7.530  15.183  0.00  0.00    +0.021 A 
BRANCH  14  18
ATOM     18  O6  UNL     1      14.822  11.549  14.220  0.00  0.00    -0.507 OA
ATOM     19  H10 UNL     1      14.714  12.070  15.032  0.00  0.00    +0.292 HD
ENDBRANCH  14  18
ENDBRANCH   1  17
BRANCH   8  20
ATOM     20  O3  UNL     1      19.397   2.764  18.634  0.00  0.00    -0.507 OA
ATOM     21  H7  UNL     1      20.185   3.175  18.243  0.00  0.00    +0.292 HD
ENDBRANCH   8  20
BRANCH   6  22
ATOM     22  O4  UNL     1      15.698   1.057  16.268  0.00  0.00    -0.506 OA
ATOM     23  H8  UNL     1      14.906   1.356  15.768  0.00  0.00    +0.292 HD
ENDBRANCH   6  22
BRANCH   2  24
ATOM     24  O5  UNL     1      13.568   5.391  14.228  0.00  0.00    -0.501 OA
ATOM     25  H9  UNL     1      13.913   5.853  13.436  0.00  0.00    +0.292 HD
ENDBRANCH   2  24
TORSDOF 5
ENDMDL
MODEL 9
REMARK VINA RESULT:    -4.299      8.849     13.004
REMARK INTER + INTRA:          -5.348
REMARK INTER:                  -5.279
REMARK INTRA:                  -0.069
REMARK UNBOUND:                -0.295
REMARK  Name = data/mahkota_dewa_dn/results/docking/ligands/pdb/Kaempferol.pdb
REMARK  5 active torsions:
REMARK  status: ('A' for Active; 'I' for Inactive)
REMARK    1  A    between atoms: C3_3  and  O6_21
REMARK    2  A    between atoms: C6_6  and  C7_7
REMARK    3  A    between atoms: C8_8  and  O5_20
REMARK    4  A    between atoms: C11_12  and  O4_19
REMARK    5  A    between atoms: C13_14  and  O3_18
REMARK                            x       y       z     vdW  Elec       q    Type
REMARK                         _______ _______ _______ _____ _____    ______ ____
ROOT
ATOM      1  C7  UNL     1      18.034   4.506  18.739  0.00  0.00    +0.181 A 
ATOM      2  C8  UNL     1      18.392   3.211  18.661  0.00  0.00    +0.208 A 
ATOM      3  C9  UNL     1      17.721   2.351  17.657  0.00  0.00    +0.238 A 
ATOM      4  O1  UNL     1      18.024   1.164  17.552  0.00  0.00    -0.283 OA
ATOM      5  C10 UNL     1      16.700   2.969  16.810  0.00  0.00    +0.109 A 
ATOM      6  C11 UNL     1      16.006   2.239  15.841  0.00  0.00    +0.135 A 
ATOM      7  C12 UNL     1      15.041   2.866  15.058  0.00  0.00    +0.091 A 
ATOM      8  C13 UNL     1      14.777   4.219  15.248  0.00  0.00    +0.124 A 
ATOM      9  C14 UNL     1      15.462   4.957  16.210  0.00  0.00    +0.092 A 
ATOM     10  C15 UNL     1      16.428   4.323  16.993  0.00  0.00    +0.147 A 
ATOM     11  O2  UNL     1      17.075   5.096  17.924  0.00  0.00    -0.451 OA
ENDROOT
BRANCH   1  17
ATOM     12  C1  UNL     1      19.119   6.697  19.231  0.00  0.00    +0.015 A 
ATOM     13  C2  UNL     1      19.675   7.623  20.117  0.00  0.00    +0.046 A 
ATOM     14  C3  UNL     1      19.756   7.319  21.469  0.00  0.00    +0.117 A 
ATOM     15  C4  UNL     1      19.285   6.104  21.953  0.00  0.00    +0.046 A 
ATOM     16  C5  UNL     1      18.727   5.178  21.065  0.00  0.00    +0.015 A 
ATOM     17  C6  UNL     1      18.644   5.459  19.692  0.00  0.00    +0.021 A 
BRANCH  14  18
ATOM     18  O6  UNL     1      20.306   8.250  22.299  0.00  0.00    -0.507 OA
ATOM     19  H10 UNL     1      20.013   8.068  23.207  0.00  0.00    +0.292 HD
ENDBRANCH  14  18
ENDBRANCH   1  17
BRANCH   8  20
ATOM     20  O3  UNL     1      13.824   4.795  14.460  0.00  0.00    -0.507 OA
ATOM     21  H7  UNL     1      12.945   4.607  14.827  0.00  0.00    +0.292 HD
ENDBRANCH   8  20
BRANCH   6  22
ATOM     22  O4  UNL     1      16.226   0.909  15.611  0.00  0.00    -0.506 OA
ATOM     23  H8  UNL     1      16.234   0.755  14.640  0.00  0.00    +0.292 HD
ENDBRANCH   6  22
BRANCH   2  24
ATOM     24  O5  UNL     1      19.364   2.619  19.446  0.00  0.00    -0.501 OA
ATOM     25  H9  UNL     1      19.709   1.872  18.914  0.00  0.00    +0.292 HD
ENDBRANCH   2  24
TORSDOF 5
ENDMDL
