MODEL 1
REMARK VINA RESULT:    -5.350      0.000      0.000
REMARK INTER + INTRA:          -7.661
REMARK INTER:                  -6.914
REMARK INTRA:                  -0.747
REMARK UNBOUND:                -0.747
REMARK  Name = data/mahkota_dewa_dn/results/docking/ligands/pdb/Pinoresinol.pdb
REMARK  8 active torsions:
REMARK  status: ('A' for Active; 'I' for Inactive)
REMARK    1  A    between atoms: C1_1  and  O1_2
REMARK    2  A    between atoms: O1_2  and  C2_3
REMARK    3  A    between atoms: C4_5  and  C8_10
REMARK    4  A    between atoms: C7_8  and  O2_9
REMARK    5  A    between atoms: C13_17  and  C14_18
REMARK    6  A    between atoms: C16_20  and  O6_25
REMARK    7  A    between atoms: C17_21  and  O5_24
REMARK    8  A    between atoms: O6_25  and  C20_26
REMARK                            x       y       z     vdW  Elec       q    Type
REMARK                         _______ _______ _______ _____ _____    ______ ____
ROOT
ATOM      1  C8  UNL     1      13.515   9.043  11.989  0.00  0.00    +0.154 C 
ATOM      2  O3  UNL     1      12.658   7.940  11.539  0.00  0.00    -0.371 OA
ATOM      3  C9  UNL     1      11.478   8.503  10.889  0.00  0.00    +0.167 C 
ATOM      4  C10 UNL     1      11.874   9.923  10.628  0.00  0.00    +0.056 C 
ATOM      5  C11 UNL     1      12.596  10.232  11.903  0.00  0.00    +0.056 C 
ATOM      6  C12 UNL     1      12.992  11.651  11.641  0.00  0.00    +0.167 C 
ATOM      7  O4  UNL     1      11.812  12.215  10.992  0.00  0.00    -0.371 OA
ATOM      8  C13 UNL     1      10.955  11.112  10.542  0.00  0.00    +0.154 C 
ENDROOT
BRANCH   1  11
ATOM      9  C2  UNL     1      14.233   9.445  15.736  0.00  0.00    +0.162 A 
ATOM     10  C3  UNL     1      13.706   9.653  14.456  0.00  0.00    +0.055 A 
ATOM     11  C4  UNL     1      14.055   8.818  13.381  0.00  0.00    -0.015 A 
ATOM     12  C5  UNL     1      14.953   7.763  13.607  0.00  0.00    +0.010 A 
ATOM     13  C6  UNL     1      15.490   7.547  14.877  0.00  0.00    +0.049 A 
ATOM     14  C7  UNL     1      15.131   8.387  15.930  0.00  0.00    +0.158 A 
BRANCH   9  16
ATOM     15  C1  UNL     1      13.848  11.613  16.648  0.00  0.00    +0.277 C 
ATOM     16  O1  UNL     1      13.950  10.209  16.837  0.00  0.00    -0.491 OA
ENDBRANCH   9  16
BRANCH  14  17
ATOM     17  O2  UNL     1      15.658   8.176  17.176  0.00  0.00    -0.503 OA
ATOM     18  H7  UNL     1      15.061   7.604  17.681  0.00  0.00    +0.292 HD
ENDBRANCH  14  17
ENDBRANCH   1  11
BRANCH   8  19
ATOM     19  C14 UNL     1      10.415  11.338   9.150  0.00  0.00    -0.015 A 
ATOM     20  C15 UNL     1      11.115  10.917   8.006  0.00  0.00    +0.055 A 
ATOM     21  C16 UNL     1      10.590  11.113   6.723  0.00  0.00    +0.162 A 
ATOM     22  C17 UNL     1       9.340  11.732   6.595  0.00  0.00    +0.158 A 
ATOM     23  C18 UNL     1       8.629  12.155   7.717  0.00  0.00    +0.049 A 
ATOM     24  C19 UNL     1       9.166  11.958   8.989  0.00  0.00    +0.010 A 
BRANCH  22  25
ATOM     25  O5  UNL     1       8.813  11.923   5.345  0.00  0.00    -0.503 OA
ATOM     26  H19 UNL     1       7.896  12.224   5.430  0.00  0.00    +0.292 HD
ENDBRANCH  22  25
BRANCH  21  27
ATOM     27  O6  UNL     1      11.202  10.736   5.557  0.00  0.00    -0.491 OA
ATOM     28  C20 UNL     1      12.602  10.951   5.455  0.00  0.00    +0.277 C 
ENDBRANCH  21  27
ENDBRANCH   8  19
TORSDOF 6
ENDMDL
MODEL 2
REMARK VINA RESULT:    -4.881      2.696      8.729
REMARK INTER + INTRA:          -7.054
REMARK INTER:                  -6.256
REMARK INTRA:                  -0.799
REMARK UNBOUND:                -0.747
REMARK  Name = data/mahkota_dewa_dn/results/docking/ligands/pdb/Pinoresinol.pdb
REMARK  8 active torsions:
REMARK  status: ('A' for Active; 'I' for Inactive)
REMARK    1  A    between atoms: C1_1  and  O1_2
REMARK    2  A    between atoms: O1_2  and  C2_3
REMARK    3  A    between atoms: C4_5  and  C8_10
REMARK    4  A    between atoms: C7_8  and  O2_9
REMARK    5  A    between atoms: C13_17  and  C14_18
REMARK    6  A    between atoms: C16_20  and  O6_25
REMARK    7  A    between atoms: C17_21  and  O5_24
REMARK    8  A    between atoms: O6_25  and  C20_26
REMARK                            x       y       z     vdW  Elec       q    Type
REMARK                         _______ _______ _______ _____ _____    ______ ____
ROOT
ATOM      1  C8  UNL     1      12.543   9.904   9.943  0.00  0.00    +0.154 C 
ATOM      2  O3  UNL     1      13.802  10.527  10.369  0.00  0.00    -0.371 OA
ATOM      3  C9  UNL     1      14.375   9.727  11.447  0.00  0.00    +0.167 C 
ATOM      4  C10 UNL     1      13.628   8.434  11.351  0.00  0.00    +0.056 C 
ATOM      5  C11 UNL     1      12.250   8.948  11.068  0.00  0.00    +0.056 C 
ATOM      6  C12 UNL     1      11.503   7.655  10.971  0.00  0.00    +0.167 C 
ATOM      7  O4  UNL     1      12.076   6.855  12.050  0.00  0.00    -0.371 OA
ATOM      8  C13 UNL     1      13.335   7.478  12.476  0.00  0.00    +0.154 C 
ENDROOT
BRANCH   1  11
ATOM      9  C2  UNL     1       9.695  11.923   8.354  0.00  0.00    +0.162 A 
ATOM     10  C3  UNL     1      10.695  10.962   8.544  0.00  0.00    +0.055 A 
ATOM     11  C4  UNL     1      11.445  10.918   9.732  0.00  0.00    -0.015 A 
ATOM     12  C5  UNL     1      11.180  11.863  10.735  0.00  0.00    +0.010 A 
ATOM     13  C6  UNL     1      10.190  12.830  10.557  0.00  0.00    +0.049 A 
ATOM     14  C7  UNL     1       9.457  12.857   9.372  0.00  0.00    +0.158 A 
BRANCH   9  16
ATOM     15  C1  UNL     1       9.449  11.528   6.017  0.00  0.00    +0.277 C 
ATOM     16  O1  UNL     1       8.919  12.040   7.231  0.00  0.00    -0.491 OA
ENDBRANCH   9  16
BRANCH  14  17
ATOM     17  O2  UNL     1       8.485  13.805   9.196  0.00  0.00    -0.503 OA
ATOM     18  H7  UNL     1       8.108  13.713   8.308  0.00  0.00    +0.292 HD
ENDBRANCH  14  17
ENDBRANCH   1  11
BRANCH   8  19
ATOM     19  C14 UNL     1      14.433   6.464  12.687  0.00  0.00    -0.015 A 
ATOM     20  C15 UNL     1      14.459   5.622  13.813  0.00  0.00    +0.055 A 
ATOM     21  C16 UNL     1      15.472   4.671  13.983  0.00  0.00    +0.162 A 
ATOM     22  C17 UNL     1      16.464   4.561  12.999  0.00  0.00    +0.158 A 
ATOM     23  C18 UNL     1      16.455   5.385  11.875  0.00  0.00    +0.049 A 
ATOM     24  C19 UNL     1      15.443   6.333  11.721  0.00  0.00    +0.010 A 
BRANCH  22  25
ATOM     25  O5  UNL     1      17.456   3.630  13.151  0.00  0.00    -0.503 OA
ATOM     26  H19 UNL     1      18.002   3.869  13.915  0.00  0.00    +0.292 HD
ENDBRANCH  22  25
BRANCH  21  27
ATOM     27  O6  UNL     1      15.575   3.812  15.045  0.00  0.00    -0.491 OA
ATOM     28  C20 UNL     1      14.581   2.805  15.168  0.00  0.00    +0.277 C 
ENDBRANCH  21  27
ENDBRANCH   8  19
TORSDOF 6
ENDMDL
MODEL 3
REMARK VINA RESULT:    -4.863      2.521      3.869
REMARK INTER + INTRA:          -7.032
REMARK INTER:                  -6.292
REMARK INTRA:                  -0.740
REMARK UNBOUND:                -0.747
REMARK  Name = data/mahkota_dewa_dn/results/docking/ligands/pdb/Pinoresinol.pdb
REMARK  8 active torsions:
REMARK  status: ('A' for Active; 'I' for Inactive)
REMARK    1  A    between atoms: C1_1  and  O1_2
REMARK    2  A    between atoms: O1_2  and  C2_3
REMARK    3  A    between atoms: C4_5  and  C8_10
REMARK    4  A    between atoms: C7_8  and  O2_9
REMARK    5  A    between atoms: C13_17  and  C14_18
REMARK    6  A    between atoms: C16_20  and  O6_25
REMARK    7  A    between atoms: C17_21  and  O5_24
REMARK    8  A    between atoms: O6_25  and  C20_26
REMARK                            x       y       z     vdW  Elec       q    Type
REMARK                         _______ _______ _______ _____ _____    ______ ____
ROOT
ATOM      1  C8  UNL     1      13.723   8.053  12.915  0.00  0.00    +0.154 C 
ATOM      2  O3  UNL     1      14.491   9.299  12.813  0.00  0.00    -0.371 OA
ATOM      3  C9  UNL     1      13.947  10.093  11.715  0.00  0.00    +0.167 C 
ATOM      4  C10 UNL     1      12.616   9.458  11.458  0.00  0.00    +0.056 C 
ATOM      5  C11 UNL     1      12.982   8.014  11.605  0.00  0.00    +0.056 C 
ATOM      6  C12 UNL     1      11.651   7.379  11.349  0.00  0.00    +0.167 C 
ATOM      7  O4  UNL     1      11.107   8.172  10.250  0.00  0.00    -0.371 OA
ATOM      8  C13 UNL     1      11.876   9.418  10.148  0.00  0.00    +0.154 C 
ENDROOT
BRANCH   1  11
ATOM      9  C2  UNL     1      15.159   4.773  14.290  0.00  0.00    +0.162 A 
ATOM     10  C3  UNL     1      14.314   5.871  14.091  0.00  0.00    +0.055 A 
ATOM     11  C4  UNL     1      14.610   6.850  13.125  0.00  0.00    -0.015 A 
ATOM     12  C5  UNL     1      15.777   6.713  12.358  0.00  0.00    +0.010 A 
ATOM     13  C6  UNL     1      16.630   5.626  12.550  0.00  0.00    +0.049 A 
ATOM     14  C7  UNL     1      16.319   4.666  13.512  0.00  0.00    +0.158 A 
BRANCH   9  16
ATOM     15  C1  UNL     1      14.109   2.700  14.820  0.00  0.00    +0.277 C 
ATOM     16  O1  UNL     1      14.950   3.776  15.207  0.00  0.00    -0.491 OA
ENDBRANCH   9  16
BRANCH  14  17
ATOM     17  O2  UNL     1      17.156   3.599  13.701  0.00  0.00    -0.503 OA
ATOM     18  H7  UNL     1      16.669   2.888  14.144  0.00  0.00    +0.292 HD
ENDBRANCH  14  17
ENDBRANCH   1  11
BRANCH   8  19
ATOM     19  C14 UNL     1      10.989  10.622   9.938  0.00  0.00    -0.015 A 
ATOM     20  C15 UNL     1      10.372  10.882   8.701  0.00  0.00    +0.055 A 
ATOM     21  C16 UNL     1       9.534  11.989   8.528  0.00  0.00    +0.162 A 
ATOM     22  C17 UNL     1       9.308  12.839   9.619  0.00  0.00    +0.158 A 
ATOM     23  C18 UNL     1       9.909  12.599  10.854  0.00  0.00    +0.049 A 
ATOM     24  C19 UNL     1      10.746  11.493  11.011  0.00  0.00    +0.010 A 
BRANCH  22  25
ATOM     25  O5  UNL     1       8.485  13.922   9.464  0.00  0.00    -0.503 OA
ATOM     26  H19 UNL     1       7.736  13.842  10.073  0.00  0.00    +0.292 HD
ENDBRANCH  22  25
BRANCH  21  27
ATOM     27  O6  UNL     1       8.894  12.317   7.362  0.00  0.00    -0.491 OA
ATOM     28  C20 UNL     1       9.166  11.516   6.221  0.00  0.00    +0.277 C 
ENDBRANCH  21  27
ENDBRANCH   8  19
TORSDOF 6
ENDMDL
MODEL 4
REMARK VINA RESULT:    -4.800      1.245      8.787
REMARK INTER + INTRA:          -6.951
REMARK INTER:                  -6.106
REMARK INTRA:                  -0.845
REMARK UNBOUND:                -0.747
REMARK  Name = data/mahkota_dewa_dn/results/docking/ligands/pdb/Pinoresinol.pdb
REMARK  8 active torsions:
REMARK  status: ('A' for Active; 'I' for Inactive)
REMARK    1  A    between atoms: C1_1  and  O1_2
REMARK    2  A    between atoms: O1_2  and  C2_3
REMARK    3  A    between atoms: C4_5  and  C8_10
REMARK    4  A    between atoms: C7_8  and  O2_9
REMARK    5  A    between atoms: C13_17  and  C14_18
REMARK    6  A    between atoms: C16_20  and  O6_25
REMARK    7  A    between atoms: C17_21  and  O5_24
REMARK    8  A    between atoms: O6_25  and  C20_26
REMARK                            x       y       z     vdW  Elec       q    Type
REMARK                         _______ _______ _______ _____ _____    ______ ____
ROOT
ATOM      1  C8  UNL     1      10.962  10.816  10.387  0.00  0.00    +0.154 C 
ATOM      2  O3  UNL     1      10.971   9.371  10.639  0.00  0.00    -0.371 OA
ATOM      3  C9  UNL     1      12.257   9.009  11.226  0.00  0.00    +0.167 C 
ATOM      4  C10 UNL     1      12.818  10.326  11.665  0.00  0.00    +0.056 C 
ATOM      5  C11 UNL     1      12.417  11.181  10.503  0.00  0.00    +0.056 C 
ATOM      6  C12 UNL     1      12.977  12.497  10.943  0.00  0.00    +0.167 C 
ATOM      7  O4  UNL     1      14.264  12.136  11.530  0.00  0.00    -0.371 OA
ATOM      8  C13 UNL     1      14.273  10.690  11.782  0.00  0.00    +0.154 C 
ENDROOT
BRANCH   1  11
ATOM      9  C2  UNL     1      10.455  11.108   6.595  0.00  0.00    +0.162 A 
ATOM     10  C3  UNL     1      10.997  10.764   7.839  0.00  0.00    +0.055 A 
ATOM     11  C4  UNL     1      10.377  11.158   9.037  0.00  0.00    -0.015 A 
ATOM     12  C5  UNL     1       9.196  11.914   8.971  0.00  0.00    +0.010 A 
ATOM     13  C6  UNL     1       8.647  12.269   7.738  0.00  0.00    +0.049 A 
ATOM     14  C7  UNL     1       9.278  11.868   6.562  0.00  0.00    +0.158 A 
BRANCH   9  16
ATOM     15  C1  UNL     1      12.378  10.460   5.346  0.00  0.00    +0.277 C 
ATOM     16  O1  UNL     1      10.993  10.769   5.381  0.00  0.00    -0.491 OA
ENDBRANCH   9  16
BRANCH  14  17
ATOM     17  O2  UNL     1       8.740  12.216   5.351  0.00  0.00    -0.503 OA
ATOM     18  H7  UNL     1       8.064  12.896   5.487  0.00  0.00    +0.292 HD
ENDBRANCH  14  17
ENDBRANCH   1  11
BRANCH   8  19
ATOM     19  C14 UNL     1      14.858  10.348  13.132  0.00  0.00    -0.015 A 
ATOM     20  C15 UNL     1      14.110  10.468  14.316  0.00  0.00    +0.055 A 
ATOM     21  C16 UNL     1      14.659  10.126  15.557  0.00  0.00    +0.162 A 
ATOM     22  C17 UNL     1      15.975   9.647  15.601  0.00  0.00    +0.158 A 
ATOM     23  C18 UNL     1      16.733   9.520  14.439  0.00  0.00    +0.049 A 
ATOM     24  C19 UNL     1      16.175   9.869  13.209  0.00  0.00    +0.010 A 
BRANCH  22  25
ATOM     25  O5  UNL     1      16.521   9.302  16.809  0.00  0.00    -0.503 OA
ATOM     26  H19 UNL     1      15.971   8.621  17.223  0.00  0.00    +0.292 HD
ENDBRANCH  22  25
BRANCH  21  27
ATOM     27  O6  UNL     1      14.005  10.210  16.757  0.00  0.00    -0.491 OA
ATOM     28  C20 UNL     1      13.673  11.508  17.229  0.00  0.00    +0.277 C 
ENDBRANCH  21  27
ENDBRANCH   8  19
TORSDOF 6
ENDMDL
MODEL 5
REMARK VINA RESULT:    -4.778      2.582      8.518
REMARK INTER + INTRA:          -6.921
REMARK INTER:                  -6.214
REMARK INTRA:                  -0.707
REMARK UNBOUND:                -0.747
REMARK  Name = data/mahkota_dewa_dn/results/docking/ligands/pdb/Pinoresinol.pdb
REMARK  8 active torsions:
REMARK  status: ('A' for Active; 'I' for Inactive)
REMARK    1  A    between atoms: C1_1  and  O1_2
REMARK    2  A    between atoms: O1_2  and  C2_3
REMARK    3  A    between atoms: C4_5  and  C8_10
REMARK    4  A    between atoms: C7_8  and  O2_9
REMARK    5  A    between atoms: C13_17  and  C14_18
REMARK    6  A    between atoms: C16_20  and  O6_25
REMARK    7  A    between atoms: C17_21  and  O5_24
REMARK    8  A    between atoms: O6_25  and  C20_26
REMARK                            x       y       z     vdW  Elec       q    Type
REMARK                         _______ _______ _______ _____ _____    ______ ____
ROOT
ATOM      1  C8  UNL     1      12.490   9.559  11.957  0.00  0.00    +0.154 C 
ATOM      2  O3  UNL     1      12.949   8.575  10.970  0.00  0.00    -0.371 OA
ATOM      3  C9  UNL     1      13.964   7.731  11.592  0.00  0.00    +0.167 C 
ATOM      4  C10 UNL     1      13.785   7.997  13.054  0.00  0.00    +0.056 C 
ATOM      5  C11 UNL     1      13.549   9.476  13.023  0.00  0.00    +0.056 C 
ATOM      6  C12 UNL     1      13.369   9.742  14.485  0.00  0.00    +0.167 C 
ATOM      7  O4  UNL     1      14.385   8.898  15.107  0.00  0.00    -0.371 OA
ATOM      8  C13 UNL     1      14.844   7.914  14.120  0.00  0.00    +0.154 C 
ENDROOT
BRANCH   1  11
ATOM      9  C2  UNL     1      11.051  12.678  10.248  0.00  0.00    +0.162 A 
ATOM     10  C3  UNL     1      11.150  11.401  10.813  0.00  0.00    +0.055 A 
ATOM     11  C4  UNL     1      12.359  10.943  11.367  0.00  0.00    -0.015 A 
ATOM     12  C5  UNL     1      13.478  11.790  11.343  0.00  0.00    +0.010 A 
ATOM     13  C6  UNL     1      13.393  13.063  10.779  0.00  0.00    +0.049 A 
ATOM     14  C7  UNL     1      12.186  13.498  10.235  0.00  0.00    +0.158 A 
BRANCH   9  16
ATOM     15  C1  UNL     1       9.220  12.395   8.750  0.00  0.00    +0.277 C 
ATOM     16  O1  UNL     1       9.917  13.203   9.686  0.00  0.00    -0.491 OA
ENDBRANCH   9  16
BRANCH  14  17
ATOM     17  O2  UNL     1      12.103  14.748   9.681  0.00  0.00    -0.503 OA
ATOM     18  H7  UNL     1      11.262  15.154   9.939  0.00  0.00    +0.292 HD
ENDBRANCH  14  17
ENDBRANCH   1  11
BRANCH   8  19
ATOM     19  C14 UNL     1      14.975   6.530  14.711  0.00  0.00    -0.015 A 
ATOM     20  C15 UNL     1      14.516   5.387  14.032  0.00  0.00    +0.055 A 
ATOM     21  C16 UNL     1      14.666   4.109  14.582  0.00  0.00    +0.162 A 
ATOM     22  C17 UNL     1      15.296   3.982  15.827  0.00  0.00    +0.158 A 
ATOM     23  C18 UNL     1      15.759   5.102  16.516  0.00  0.00    +0.049 A 
ATOM     24  C19 UNL     1      15.598   6.371  15.958  0.00  0.00    +0.010 A 
BRANCH  22  25
ATOM     25  O5  UNL     1      15.454   2.736  16.373  0.00  0.00    -0.503 OA
ATOM     26  H19 UNL     1      15.257   2.068  15.699  0.00  0.00    +0.292 HD
ENDBRANCH  22  25
BRANCH  21  27
ATOM     27  O6  UNL     1      14.251   2.945  13.992  0.00  0.00    -0.491 OA
ATOM     28  C20 UNL     1      14.687   2.695  12.663  0.00  0.00    +0.277 C 
ENDBRANCH  21  27
ENDBRANCH   8  19
TORSDOF 6
ENDMDL
MODEL 6
REMARK VINA RESULT:    -4.711      2.939      9.055
REMARK INTER + INTRA:          -6.835
REMARK INTER:                  -6.181
REMARK INTRA:                  -0.654
REMARK UNBOUND:                -0.747
REMARK  Name = data/mahkota_dewa_dn/results/docking/ligands/pdb/Pinoresinol.pdb
REMARK  8 active torsions:
REMARK  status: ('A' for Active; 'I' for Inactive)
REMARK    1  A    between atoms: C1_1  and  O1_2
REMARK    2  A    between atoms: O1_2  and  C2_3
REMARK    3  A    between atoms: C4_5  and  C8_10
REMARK    4  A    between atoms: C7_8  and  O2_9
REMARK    5  A    between atoms: C13_17  and  C14_18
REMARK    6  A    between atoms: C16_20  and  O6_25
REMARK    7  A    between atoms: C17_21  and  O5_24
REMARK    8  A    between atoms: O6_25  and  C20_26
REMARK                            x       y       z     vdW  Elec       q    Type
REMARK                         _______ _______ _______ _____ _____    ______ ____
ROOT
ATOM      1  C8  UNL     1      12.988   8.787  12.599  0.00  0.00    +0.154 C 
ATOM      2  O3  UNL     1      13.143   7.800  11.525  0.00  0.00    -0.371 OA
ATOM      3  C9  UNL     1      14.103   6.790  11.956  0.00  0.00    +0.167 C 
ATOM      4  C10 UNL     1      14.187   7.003  13.435  0.00  0.00    +0.056 C 
ATOM      5  C11 UNL     1      14.170   8.500  13.485  0.00  0.00    +0.056 C 
ATOM      6  C12 UNL     1      14.253   8.713  14.964  0.00  0.00    +0.167 C 
ATOM      7  O4  UNL     1      15.215   7.703  15.396  0.00  0.00    -0.371 OA
ATOM      8  C13 UNL     1      15.369   6.716  14.321  0.00  0.00    +0.154 C 
ENDROOT
BRANCH   1  11
ATOM      9  C2  UNL     1      11.840  12.076  10.993  0.00  0.00    +0.162 A 
ATOM     10  C3  UNL     1      11.828  10.769  11.493  0.00  0.00    +0.055 A 
ATOM     11  C4  UNL     1      12.976  10.204  12.077  0.00  0.00    -0.015 A 
ATOM     12  C5  UNL     1      14.148  10.973  12.148  0.00  0.00    +0.010 A 
ATOM     13  C6  UNL     1      14.174  12.276  11.649  0.00  0.00    +0.049 A 
ATOM     14  C7  UNL     1      13.025  12.818  11.074  0.00  0.00    +0.158 A 
BRANCH   9  16
ATOM     15  C1  UNL     1       9.496  12.509  11.001  0.00  0.00    +0.277 C 
ATOM     16  O1  UNL     1      10.771  12.704  10.408  0.00  0.00    -0.491 OA
ENDBRANCH   9  16
BRANCH  14  17
ATOM     17  O2  UNL     1      13.050  14.096  10.583  0.00  0.00    -0.503 OA
ATOM     18  H7  UNL     1      12.149  14.364  10.348  0.00  0.00    +0.292 HD
ENDBRANCH  14  17
ENDBRANCH   1  11
BRANCH   8  19
ATOM     19  C14 UNL     1      15.381   5.299  14.843  0.00  0.00    -0.015 A 
ATOM     20  C15 UNL     1      16.266   4.890  15.857  0.00  0.00    +0.055 A 
ATOM     21  C16 UNL     1      16.250   3.578  16.347  0.00  0.00    +0.162 A 
ATOM     22  C17 UNL     1      15.323   2.673  15.813  0.00  0.00    +0.158 A 
ATOM     23  C18 UNL     1      14.437   3.059  14.809  0.00  0.00    +0.049 A 
ATOM     24  C19 UNL     1      14.467   4.368  14.326  0.00  0.00    +0.010 A 
BRANCH  22  25
ATOM     25  O5  UNL     1      15.293   1.389  16.289  0.00  0.00    -0.503 OA
ATOM     26  H19 UNL     1      16.187   1.016  16.252  0.00  0.00    +0.292 HD
ENDBRANCH  22  25
BRANCH  21  27
ATOM     27  O6  UNL     1      17.072   3.095  17.329  0.00  0.00    -0.491 OA
ATOM     28  C20 UNL     1      17.857   4.039  18.045  0.00  0.00    +0.277 C 
ENDBRANCH  21  27
ENDBRANCH   8  19
TORSDOF 6
ENDMDL
MODEL 7
REMARK VINA RESULT:    -4.706      1.937      3.433
REMARK INTER + INTRA:          -6.828
REMARK INTER:                  -6.166
REMARK INTRA:                  -0.662
REMARK UNBOUND:                -0.747
REMARK  Name = data/mahkota_dewa_dn/results/docking/ligands/pdb/Pinoresinol.pdb
REMARK  8 active torsions:
REMARK  status: ('A' for Active; 'I' for Inactive)
REMARK    1  A    between atoms: C1_1  and  O1_2
REMARK    2  A    between atoms: O1_2  and  C2_3
REMARK    3  A    between atoms: C4_5  and  C8_10
REMARK    4  A    between atoms: C7_8  and  O2_9
REMARK    5  A    between atoms: C13_17  and  C14_18
REMARK    6  A    between atoms: C16_20  and  O6_25
REMARK    7  A    between atoms: C17_21  and  O5_24
REMARK    8  A    between atoms: O6_25  and  C20_26
REMARK                            x       y       z     vdW  Elec       q    Type
REMARK                         _______ _______ _______ _____ _____    ______ ____
ROOT
ATOM      1  C8  UNL     1      14.370   7.594  12.841  0.00  0.00    +0.154 C 
ATOM      2  O3  UNL     1      13.349   6.701  12.282  0.00  0.00    -0.371 OA
ATOM      3  C9  UNL     1      12.283   7.515  11.708  0.00  0.00    +0.167 C 
ATOM      4  C10 UNL     1      12.906   8.871  11.598  0.00  0.00    +0.056 C 
ATOM      5  C11 UNL     1      13.658   8.919  12.892  0.00  0.00    +0.056 C 
ATOM      6  C12 UNL     1      14.281  10.275  12.782  0.00  0.00    +0.167 C 
ATOM      7  O4  UNL     1      13.214  11.089  12.208  0.00  0.00    -0.371 OA
ATOM      8  C13 UNL     1      12.193  10.196  11.650  0.00  0.00    +0.154 C 
ENDROOT
BRANCH   1  11
ATOM      9  C2  UNL     1      15.301   5.367  15.822  0.00  0.00    +0.162 A 
ATOM     10  C3  UNL     1      14.871   5.775  14.555  0.00  0.00    +0.055 A 
ATOM     11  C4  UNL     1      14.855   7.134  14.195  0.00  0.00    -0.015 A 
ATOM     12  C5  UNL     1      15.275   8.088  15.135  0.00  0.00    +0.010 A 
ATOM     13  C6  UNL     1      15.702   7.695  16.404  0.00  0.00    +0.049 A 
ATOM     14  C7  UNL     1      15.710   6.342  16.741  0.00  0.00    +0.158 A 
BRANCH   9  16
ATOM     15  C1  UNL     1      15.252   3.048  15.273  0.00  0.00    +0.277 C 
ATOM     16  O1  UNL     1      15.347   4.068  16.256  0.00  0.00    -0.491 OA
ENDBRANCH   9  16
BRANCH  14  17
ATOM     17  O2  UNL     1      16.128   5.955  17.986  0.00  0.00    -0.503 OA
ATOM     18  H7  UNL     1      17.053   5.670  17.937  0.00  0.00    +0.292 HD
ENDBRANCH  14  17
ENDBRANCH   1  11
BRANCH   8  19
ATOM     19  C14 UNL     1      11.709  10.656  10.296  0.00  0.00    -0.015 A 
ATOM     20  C15 UNL     1      10.482  11.323  10.134  0.00  0.00    +0.055 A 
ATOM     21  C16 UNL     1      10.057  11.764   8.875  0.00  0.00    +0.162 A 
ATOM     22  C17 UNL     1      10.886  11.536   7.768  0.00  0.00    +0.158 A 
ATOM     23  C18 UNL     1      12.106  10.877   7.907  0.00  0.00    +0.049 A 
ATOM     24  C19 UNL     1      12.515  10.439   9.167  0.00  0.00    +0.010 A 
BRANCH  22  25
ATOM     25  O5  UNL     1      10.484  11.968   6.532  0.00  0.00    -0.503 OA
ATOM     26  H19 UNL     1       9.852  11.333   6.164  0.00  0.00    +0.292 HD
ENDBRANCH  22  25
BRANCH  21  27
ATOM     27  O6  UNL     1       8.882  12.421   8.627  0.00  0.00    -0.491 OA
ATOM     28  C20 UNL     1       8.510  13.455   9.527  0.00  0.00    +0.277 C 
ENDBRANCH  21  27
ENDBRANCH   8  19
TORSDOF 6
ENDMDL
MODEL 8
REMARK VINA RESULT:    -4.643      1.848      8.799
REMARK INTER + INTRA:          -6.747
REMARK INTER:                  -5.909
REMARK INTRA:                  -0.838
REMARK UNBOUND:                -0.747
REMARK  Name = data/mahkota_dewa_dn/results/docking/ligands/pdb/Pinoresinol.pdb
REMARK  8 active torsions:
REMARK  status: ('A' for Active; 'I' for Inactive)
REMARK    1  A    between atoms: C1_1  and  O1_2
REMARK    2  A    between atoms: O1_2  and  C2_3
REMARK    3  A    between atoms: C4_5  and  C8_10
REMARK    4  A    between atoms: C7_8  and  O2_9
REMARK    5  A    between atoms: C13_17  and  C14_18
REMARK    6  A    between atoms: C16_20  and  O6_25
REMARK    7  A    between atoms: C17_21  and  O5_24
REMARK    8  A    between atoms: O6_25  and  C20_26
REMARK                            x       y       z     vdW  Elec       q    Type
REMARK                         _______ _______ _______ _____ _____    ______ ____
ROOT
ATOM      1  C8  UNL     1      12.139   9.558  11.342  0.00  0.00    +0.154 C 
ATOM      2  O3  UNL     1      11.886   8.114  11.280  0.00  0.00    -0.371 OA
ATOM      3  C9  UNL     1      12.928   7.426  12.036  0.00  0.00    +0.167 C 
ATOM      4  C10 UNL     1      13.541   8.521  12.851  0.00  0.00    +0.056 C 
ATOM      5  C11 UNL     1      13.558   9.624  11.838  0.00  0.00    +0.056 C 
ATOM      6  C12 UNL     1      14.171  10.719  12.653  0.00  0.00    +0.167 C 
ATOM      7  O4  UNL     1      15.214  10.031  13.409  0.00  0.00    -0.371 OA
ATOM      8  C13 UNL     1      14.961   8.587  13.347  0.00  0.00    +0.154 C 
ENDROOT
BRANCH   1  11
ATOM      9  C2  UNL     1      10.590  11.483   8.407  0.00  0.00    +0.162 A 
ATOM     10  C3  UNL     1      10.756  10.885   9.661  0.00  0.00    +0.055 A 
ATOM     11  C4  UNL     1      11.952  10.230  10.002  0.00  0.00    -0.015 A 
ATOM     12  C5  UNL     1      12.988  10.178   9.057  0.00  0.00    +0.010 A 
ATOM     13  C6  UNL     1      12.834  10.766   7.801  0.00  0.00    +0.049 A 
ATOM     14  C7  UNL     1      11.641  11.410   7.483  0.00  0.00    +0.158 A 
BRANCH   9  16
ATOM     15  C1  UNL     1       8.658  12.751   8.989  0.00  0.00    +0.277 C 
ATOM     16  O1  UNL     1       9.461  12.138   7.991  0.00  0.00    -0.491 OA
ENDBRANCH   9  16
BRANCH  14  17
ATOM     17  O2  UNL     1      11.488  11.987   6.250  0.00  0.00    -0.503 OA
ATOM     18  H7  UNL     1      11.684  11.330   5.565  0.00  0.00    +0.292 HD
ENDBRANCH  14  17
ENDBRANCH   1  11
BRANCH   8  19
ATOM     19  C14 UNL     1      15.147   7.915  14.686  0.00  0.00    -0.015 A 
ATOM     20  C15 UNL     1      15.275   6.520  14.805  0.00  0.00    +0.055 A 
ATOM     21  C16 UNL     1      15.470   5.914  16.051  0.00  0.00    +0.162 A 
ATOM     22  C17 UNL     1      15.547   6.727  17.190  0.00  0.00    +0.158 A 
ATOM     23  C18 UNL     1      15.424   8.112  17.094  0.00  0.00    +0.049 A 
ATOM     24  C19 UNL     1      15.225   8.703  15.846  0.00  0.00    +0.010 A 
BRANCH  22  25
ATOM     25  O5  UNL     1      15.744   6.146  18.414  0.00  0.00    -0.503 OA
ATOM     26  H19 UNL     1      16.370   5.412  18.320  0.00  0.00    +0.292 HD
ENDBRANCH  22  25
BRANCH  21  27
ATOM     27  O6  UNL     1      15.605   4.567  16.259  0.00  0.00    -0.491 OA
ATOM     28  C20 UNL     1      15.058   3.698  15.277  0.00  0.00    +0.277 C 
ENDBRANCH  21  27
ENDBRANCH   8  19
TORSDOF 6
ENDMDL
MODEL 9
REMARK VINA RESULT:    -4.576      7.358      9.861
REMARK INTER + INTRA:          -6.661
REMARK INTER:                  -5.826
REMARK INTRA:                  -0.835
REMARK UNBOUND:                -0.747
REMARK  Name = data/mahkota_dewa_dn/results/docking/ligands/pdb/Pinoresinol.pdb
REMARK  8 active torsions:
REMARK  status: ('A' for Active; 'I' for Inactive)
REMARK    1  A    between atoms: C1_1  and  O1_2
REMARK    2  A    between atoms: O1_2  and  C2_3
REMARK    3  A    between atoms: C4_5  and  C8_10
REMARK    4  A    between atoms: C7_8  and  O2_9
REMARK    5  A    between atoms: C13_17  and  C14_18
REMARK    6  A    between atoms: C16_20  and  O6_25
REMARK    7  A    between atoms: C17_21  and  O5_24
REMARK    8  A    between atoms: O6_25  and  C20_26
REMARK                            x       y       z     vdW  Elec       q    Type
REMARK                         _______ _______ _______ _____ _____    ______ ____
ROOT
ATOM      1  C8  UNL     1      16.217   6.775  16.231  0.00  0.00    +0.154 C 
ATOM      2  O3  UNL     1      16.637   7.731  15.200  0.00  0.00    -0.371 OA
ATOM      3  C9  UNL     1      16.174   9.061  15.583  0.00  0.00    +0.167 C 
ATOM      4  C10 UNL     1      15.834   8.903  17.033  0.00  0.00    +0.056 C 
ATOM      5  C11 UNL     1      15.187   7.553  17.004  0.00  0.00    +0.056 C 
ATOM      6  C12 UNL     1      14.849   7.395  18.453  0.00  0.00    +0.167 C 
ATOM      7  O4  UNL     1      14.385   8.725  18.837  0.00  0.00    -0.371 OA
ATOM      8  C13 UNL     1      14.804   9.682  17.806  0.00  0.00    +0.154 C 
ENDROOT
BRANCH   1  11
ATOM      9  C2  UNL     1      15.439   3.066  15.633  0.00  0.00    +0.162 A 
ATOM     10  C3  UNL     1      15.937   4.242  16.207  0.00  0.00    +0.055 A 
ATOM     11  C4  UNL     1      15.668   5.499  15.639  0.00  0.00    -0.015 A 
ATOM     12  C5  UNL     1      14.889   5.562  14.472  0.00  0.00    +0.010 A 
ATOM     13  C6  UNL     1      14.391   4.398  13.887  0.00  0.00    +0.049 A 
ATOM     14  C7  UNL     1      14.669   3.161  14.466  0.00  0.00    +0.158 A 
BRANCH   9  16
ATOM     15  C1  UNL     1      16.991   1.440  16.424  0.00  0.00    +0.277 C 
ATOM     16  O1  UNL     1      15.653   1.803  16.118  0.00  0.00    -0.491 OA
ENDBRANCH   9  16
BRANCH  14  17
ATOM     17  O2  UNL     1      14.180   2.018  13.892  0.00  0.00    -0.503 OA
ATOM     18  H7  UNL     1      13.304   2.198  13.521  0.00  0.00    +0.292 HD
ENDBRANCH  14  17
ENDBRANCH   1  11
BRANCH   8  19
ATOM     19  C14 UNL     1      15.354  10.957  18.398  0.00  0.00    -0.015 A 
ATOM     20  C15 UNL     1      14.520  12.039  18.732  0.00  0.00    +0.055 A 
ATOM     21  C16 UNL     1      15.042  13.206  19.302  0.00  0.00    +0.162 A 
ATOM     22  C17 UNL     1      16.420  13.278  19.546  0.00  0.00    +0.158 A 
ATOM     23  C18 UNL     1      17.263  12.216  19.223  0.00  0.00    +0.049 A 
ATOM     24  C19 UNL     1      16.731  11.060  18.651  0.00  0.00    +0.010 A 
BRANCH  22  25
ATOM     25  O5  UNL     1      16.941  14.412  20.109  0.00  0.00    -0.503 OA
ATOM     26  H19 UNL     1      16.279  14.809  20.694  0.00  0.00    +0.292 HD
ENDBRANCH  22  25
BRANCH  21  27
ATOM     27  O6  UNL     1      14.306  14.305  19.658  0.00  0.00    -0.491 OA
ATOM     28  C20 UNL     1      12.896  14.148  19.737  0.00  0.00    +0.277 C 
ENDBRANCH  21  27
ENDBRANCH   8  19
TORSDOF 6
ENDMDL
