MODEL 1
REMARK VINA RESULT:    -4.450      0.000      0.000
REMARK INTER + INTRA:          -7.990
REMARK INTER:                  -6.271
REMARK INTRA:                  -1.719
REMARK UNBOUND:                -1.719
REMARK  Name = data/mahkota_dewa_dn/results/docking/ligands/pdb/Matairesinol.pdb
REMARK  10 active torsions:
REMARK  status: ('A' for Active; 'I' for Inactive)
REMARK    1  A    between atoms: C1_1  and  O1_2
REMARK    2  A    between atoms: O1_2  and  C2_3
REMARK    3  A    between atoms: C3_4  and  O6_26
REMARK    4  A    between atoms: C6_7  and  C8_9
REMARK    5  A    between atoms: C8_9  and  C9_10
REMARK    6  A    between atoms: C12_15  and  C13_16
REMARK    7  A    between atoms: C13_16  and  C14_17
REMARK    8  A    between atoms: C16_19  and  O5_24
REMARK    9  A    between atoms: C17_20  and  O4_23
REMARK   10  A    between atoms: O5_24  and  C20_25
REMARK                            x       y       z     vdW  Elec       q    Type
REMARK                         _______ _______ _______ _____ _____    ______ ____
ROOT
ATOM      1  C9  UNL     1      13.885  12.602  10.914  0.00  0.00    +0.045 C 
ATOM      2  C10 UNL     1      14.435  13.886  11.504  0.00  0.00    +0.236 C 
ATOM      3  O2  UNL     1      15.685  14.093  10.847  0.00  0.00    -0.464 OA
ATOM      4  C11 UNL     1      15.680  13.439   9.648  0.00  0.00    +0.311 C 
ATOM      5  O3  UNL     1      16.596  13.491   8.845  0.00  0.00    -0.251 OA
ATOM      6  C12 UNL     1      14.382  12.688   9.467  0.00  0.00    +0.109 C 
ENDROOT
BRANCH   1   7
ATOM      7  C8  UNL     1      14.456  11.345  11.609  0.00  0.00    +0.043 C 
BRANCH   7  12
ATOM      8  C2  UNL     1      13.124   7.775  11.905  0.00  0.00    +0.162 A 
ATOM      9  C3  UNL     1      11.874   7.916  11.286  0.00  0.00    +0.158 A 
ATOM     10  C4  UNL     1      11.461   9.143  10.770  0.00  0.00    +0.049 A 
ATOM     11  C5  UNL     1      12.300  10.253  10.870  0.00  0.00    +0.007 A 
ATOM     12  C6  UNL     1      13.552  10.140  11.489  0.00  0.00    -0.043 A 
ATOM     13  C7  UNL     1      13.957   8.894  11.998  0.00  0.00    +0.053 A 
BRANCH   8  15
ATOM     14  C1  UNL     1      14.272   6.440  13.517  0.00  0.00    +0.277 C 
ATOM     15  O1  UNL     1      13.428   6.525  12.378  0.00  0.00    -0.491 OA
ENDBRANCH   8  15
BRANCH   9  16
ATOM     16  O6  UNL     1      11.049   6.827  11.190  0.00  0.00    -0.503 OA
ATOM     17  H22 UNL     1      10.497   6.914  10.399  0.00  0.00    +0.292 HD
ENDBRANCH   9  16
ENDBRANCH   7  12
ENDBRANCH   1   7
BRANCH   6  18
ATOM     18  C13 UNL     1      13.441  13.493   8.560  0.00  0.00    +0.050 C 
BRANCH  18  19
ATOM     19  C14 UNL     1      12.173  12.734   8.235  0.00  0.00    -0.043 A 
ATOM     20  C15 UNL     1      10.961  13.071   8.861  0.00  0.00    +0.053 A 
ATOM     21  C16 UNL     1       9.779  12.391   8.551  0.00  0.00    +0.162 A 
ATOM     22  C17 UNL     1       9.826  11.349   7.617  0.00  0.00    +0.158 A 
ATOM     23  C18 UNL     1      11.021  11.002   6.987  0.00  0.00    +0.049 A 
ATOM     24  C19 UNL     1      12.191  11.699   7.292  0.00  0.00    +0.007 A 
BRANCH  22  25
ATOM     25  O4  UNL     1       8.677  10.667   7.314  0.00  0.00    -0.503 OA
ATOM     26  H18 UNL     1       8.868  10.014   6.624  0.00  0.00    +0.292 HD
ENDBRANCH  22  25
BRANCH  21  27
ATOM     27  O5  UNL     1       8.555  12.657   9.108  0.00  0.00    -0.491 OA
ATOM     28  C20 UNL     1       8.488  13.740  10.027  0.00  0.00    +0.277 C 
ENDBRANCH  21  27
ENDBRANCH  18  19
ENDBRANCH   6  18
TORSDOF 8
ENDMDL
MODEL 2
REMARK VINA RESULT:    -4.449      3.721      8.704
REMARK INTER + INTRA:          -7.988
REMARK INTER:                  -6.481
REMARK INTRA:                  -1.507
REMARK UNBOUND:                -1.719
REMARK  Name = data/mahkota_dewa_dn/results/docking/ligands/pdb/Matairesinol.pdb
REMARK  10 active torsions:
REMARK  status: ('A' for Active; 'I' for Inactive)
REMARK    1  A    between atoms: C1_1  and  O1_2
REMARK    2  A    between atoms: O1_2  and  C2_3
REMARK    3  A    between atoms: C3_4  and  O6_26
REMARK    4  A    between atoms: C6_7  and  C8_9
REMARK    5  A    between atoms: C8_9  and  C9_10
REMARK    6  A    between atoms: C12_15  and  C13_16
REMARK    7  A    between atoms: C13_16  and  C14_17
REMARK    8  A    between atoms: C16_19  and  O5_24
REMARK    9  A    between atoms: C17_20  and  O4_23
REMARK   10  A    between atoms: O5_24  and  C20_25
REMARK                            x       y       z     vdW  Elec       q    Type
REMARK                         _______ _______ _______ _____ _____    ______ ____
ROOT
ATOM      1  C9  UNL     1      15.854   9.382  15.552  0.00  0.00    +0.045 C 
ATOM      2  C10 UNL     1      16.652  10.080  16.636  0.00  0.00    +0.236 C 
ATOM      3  O2  UNL     1      15.862   9.956  17.818  0.00  0.00    -0.464 OA
ATOM      4  C11 UNL     1      15.027   8.883  17.694  0.00  0.00    +0.311 C 
ATOM      5  O3  UNL     1      14.280   8.500  18.579  0.00  0.00    -0.251 OA
ATOM      6  C12 UNL     1      15.195   8.243  16.336  0.00  0.00    +0.109 C 
ENDROOT
BRANCH   1   7
ATOM      7  C8  UNL     1      14.780  10.303  14.928  0.00  0.00    +0.043 C 
BRANCH   7  12
ATOM      8  C2  UNL     1      12.602   9.737  11.839  0.00  0.00    +0.162 A 
ATOM      9  C3  UNL     1      13.485   9.005  11.034  0.00  0.00    +0.158 A 
ATOM     10  C4  UNL     1      14.769   8.686  11.477  0.00  0.00    +0.049 A 
ATOM     11  C5  UNL     1      15.185   9.103  12.742  0.00  0.00    +0.007 A 
ATOM     12  C6  UNL     1      14.323   9.840  13.564  0.00  0.00    -0.043 A 
ATOM     13  C7  UNL     1      13.031  10.147  13.105  0.00  0.00    +0.053 A 
BRANCH   8  15
ATOM     14  C1  UNL     1      11.029  11.351  11.055  0.00  0.00    +0.277 C 
ATOM     15  O1  UNL     1      11.367   9.995  11.304  0.00  0.00    -0.491 OA
ENDBRANCH   8  15
BRANCH   9  16
ATOM     16  O6  UNL     1      13.077   8.598   9.791  0.00  0.00    -0.503 OA
ATOM     17  H22 UNL     1      13.442   9.198   9.124  0.00  0.00    +0.292 HD
ENDBRANCH   9  16
ENDBRANCH   7  12
ENDBRANCH   1   7
BRANCH   6  18
ATOM     18  C13 UNL     1      16.094   7.003  16.456  0.00  0.00    +0.050 C 
BRANCH  18  19
ATOM     19  C14 UNL     1      15.560   5.832  15.661  0.00  0.00    -0.043 A 
ATOM     20  C15 UNL     1      15.726   4.518  16.129  0.00  0.00    +0.053 A 
ATOM     21  C16 UNL     1      15.216   3.430  15.413  0.00  0.00    +0.162 A 
ATOM     22  C17 UNL     1      14.552   3.671  14.204  0.00  0.00    +0.158 A 
ATOM     23  C18 UNL     1      14.379   4.970  13.726  0.00  0.00    +0.049 A 
ATOM     24  C19 UNL     1      14.877   6.048  14.457  0.00  0.00    +0.007 A 
BRANCH  22  25
ATOM     25  O4  UNL     1      14.059   2.612  13.488  0.00  0.00    -0.503 OA
ATOM     26  H18 UNL     1      14.799   2.099  13.130  0.00  0.00    +0.292 HD
ENDBRANCH  22  25
BRANCH  21  27
ATOM     27  O5  UNL     1      15.328   2.120  15.798  0.00  0.00    -0.491 OA
ATOM     28  C20 UNL     1      16.514   1.751  16.491  0.00  0.00    +0.277 C 
ENDBRANCH  21  27
ENDBRANCH  18  19
ENDBRANCH   6  18
TORSDOF 8
ENDMDL
MODEL 3
REMARK VINA RESULT:    -4.271      2.391      4.069
REMARK INTER + INTRA:          -7.738
REMARK INTER:                  -6.015
REMARK INTRA:                  -1.722
REMARK UNBOUND:                -1.719
REMARK  Name = data/mahkota_dewa_dn/results/docking/ligands/pdb/Matairesinol.pdb
REMARK  10 active torsions:
REMARK  status: ('A' for Active; 'I' for Inactive)
REMARK    1  A    between atoms: C1_1  and  O1_2
REMARK    2  A    between atoms: O1_2  and  C2_3
REMARK    3  A    between atoms: C3_4  and  O6_26
REMARK    4  A    between atoms: C6_7  and  C8_9
REMARK    5  A    between atoms: C8_9  and  C9_10
REMARK    6  A    between atoms: C12_15  and  C13_16
REMARK    7  A    between atoms: C13_16  and  C14_17
REMARK    8  A    between atoms: C16_19  and  O5_24
REMARK    9  A    between atoms: C17_20  and  O4_23
REMARK   10  A    between atoms: O5_24  and  C20_25
REMARK                            x       y       z     vdW  Elec       q    Type
REMARK                         _______ _______ _______ _____ _____    ______ ____
ROOT
ATOM      1  C9  UNL     1      10.633  11.913   9.946  0.00  0.00    +0.045 C 
ATOM      2  C10 UNL     1       9.526  12.949   9.898  0.00  0.00    +0.236 C 
ATOM      3  O2  UNL     1      10.194  14.209   9.867  0.00  0.00    -0.464 OA
ATOM      4  C11 UNL     1      11.457  14.039   9.375  0.00  0.00    +0.311 C 
ATOM      5  O3  UNL     1      12.236  14.956   9.179  0.00  0.00    -0.251 OA
ATOM      6  C12 UNL     1      11.716  12.578   9.090  0.00  0.00    +0.109 C 
ENDROOT
BRANCH   1   7
ATOM      7  C8  UNL     1      11.150  11.672  11.382  0.00  0.00    +0.043 C 
BRANCH   7  12
ATOM      8  C2  UNL     1      13.314   8.823  12.727  0.00  0.00    +0.162 A 
ATOM      9  C3  UNL     1      12.859   7.760  11.935  0.00  0.00    +0.158 A 
ATOM     10  C4  UNL     1      11.871   7.952  10.970  0.00  0.00    +0.049 A 
ATOM     11  C5  UNL     1      11.321   9.221  10.788  0.00  0.00    +0.007 A 
ATOM     12  C6  UNL     1      11.755  10.299  11.571  0.00  0.00    -0.043 A 
ATOM     13  C7  UNL     1      12.756  10.091  12.534  0.00  0.00    +0.053 A 
BRANCH   8  15
ATOM     14  C1  UNL     1      15.502   9.252  13.578  0.00  0.00    +0.277 C 
ATOM     15  O1  UNL     1      14.286   8.522  13.645  0.00  0.00    -0.491 OA
ENDBRANCH   8  15
BRANCH   9  16
ATOM     16  O6  UNL     1      13.397   6.513  12.116  0.00  0.00    -0.503 OA
ATOM     17  H22 UNL     1      14.037   6.337  11.410  0.00  0.00    +0.292 HD
ENDBRANCH   9  16
ENDBRANCH   7  12
ENDBRANCH   1   7
BRANCH   6  18
ATOM     18  C13 UNL     1      11.541  12.305   7.589  0.00  0.00    +0.050 C 
BRANCH  18  19
ATOM     19  C14 UNL     1      12.495  11.244   7.087  0.00  0.00    -0.043 A 
ATOM     20  C15 UNL     1      13.540  10.782   7.903  0.00  0.00    +0.053 A 
ATOM     21  C16 UNL     1      14.414   9.784   7.457  0.00  0.00    +0.162 A 
ATOM     22  C17 UNL     1      14.242   9.265   6.168  0.00  0.00    +0.158 A 
ATOM     23  C18 UNL     1      13.209   9.714   5.345  0.00  0.00    +0.049 A 
ATOM     24  C19 UNL     1      12.334  10.697   5.807  0.00  0.00    +0.007 A 
BRANCH  22  25
ATOM     25  O4  UNL     1      15.099   8.297   5.716  0.00  0.00    -0.503 OA
ATOM     26  H18 UNL     1      16.011   8.607   5.820  0.00  0.00    +0.292 HD
ENDBRANCH  22  25
BRANCH  21  27
ATOM     27  O5  UNL     1      15.454   9.272   8.188  0.00  0.00    -0.491 OA
ATOM     28  C20 UNL     1      15.274   9.196   9.597  0.00  0.00    +0.277 C 
ENDBRANCH  21  27
ENDBRANCH  18  19
ENDBRANCH   6  18
TORSDOF 8
ENDMDL
MODEL 4
REMARK VINA RESULT:    -4.268      2.435      5.453
REMARK INTER + INTRA:          -7.733
REMARK INTER:                  -5.850
REMARK INTRA:                  -1.883
REMARK UNBOUND:                -1.719
REMARK  Name = data/mahkota_dewa_dn/results/docking/ligands/pdb/Matairesinol.pdb
REMARK  10 active torsions:
REMARK  status: ('A' for Active; 'I' for Inactive)
REMARK    1  A    between atoms: C1_1  and  O1_2
REMARK    2  A    between atoms: O1_2  and  C2_3
REMARK    3  A    between atoms: C3_4  and  O6_26
REMARK    4  A    between atoms: C6_7  and  C8_9
REMARK    5  A    between atoms: C8_9  and  C9_10
REMARK    6  A    between atoms: C12_15  and  C13_16
REMARK    7  A    between atoms: C13_16  and  C14_17
REMARK    8  A    between atoms: C16_19  and  O5_24
REMARK    9  A    between atoms: C17_20  and  O4_23
REMARK   10  A    between atoms: O5_24  and  C20_25
REMARK                            x       y       z     vdW  Elec       q    Type
REMARK                         _______ _______ _______ _____ _____    ______ ____
ROOT
ATOM      1  C9  UNL     1      12.046  12.861   9.287  0.00  0.00    +0.045 C 
ATOM      2  C10 UNL     1      12.139  14.295   9.771  0.00  0.00    +0.236 C 
ATOM      3  O2  UNL     1      10.803  14.794   9.718  0.00  0.00    -0.464 OA
ATOM      4  C11 UNL     1       9.927  13.749   9.781  0.00  0.00    +0.311 C 
ATOM      5  O3  UNL     1       8.715  13.883   9.818  0.00  0.00    -0.251 OA
ATOM      6  C12 UNL     1      10.676  12.439   9.831  0.00  0.00    +0.109 C 
ENDROOT
BRANCH   1   7
ATOM      7  C8  UNL     1      12.071  12.758   7.745  0.00  0.00    +0.043 C 
BRANCH   7  12
ATOM      8  C2  UNL     1      14.256   9.623   7.677  0.00  0.00    +0.162 A 
ATOM      9  C3  UNL     1      14.136   9.257   6.329  0.00  0.00    +0.158 A 
ATOM     10  C4  UNL     1      13.367  10.011   5.444  0.00  0.00    +0.049 A 
ATOM     11  C5  UNL     1      12.703  11.148   5.903  0.00  0.00    +0.007 A 
ATOM     12  C6  UNL     1      12.802  11.533   7.246  0.00  0.00    -0.043 A 
ATOM     13  C7  UNL     1      13.586  10.766   8.124  0.00  0.00    +0.053 A 
BRANCH   8  15
ATOM     14  C1  UNL     1      15.728   9.409   9.544  0.00  0.00    +0.277 C 
ATOM     15  O1  UNL     1      15.035   8.810   8.458  0.00  0.00    -0.491 OA
ENDBRANCH   8  15
BRANCH   9  16
ATOM     16  O6  UNL     1      14.787   8.138   5.880  0.00  0.00    -0.503 OA
ATOM     17  H22 UNL     1      15.069   8.280   4.964  0.00  0.00    +0.292 HD
ENDBRANCH   9  16
ENDBRANCH   7  12
ENDBRANCH   1   7
BRANCH   6  18
ATOM     18  C13 UNL     1      10.740  11.934  11.280  0.00  0.00    +0.050 C 
BRANCH  18  19
ATOM     19  C14 UNL     1      11.520  10.643  11.401  0.00  0.00    -0.043 A 
ATOM     20  C15 UNL     1      12.580  10.535  12.316  0.00  0.00    +0.053 A 
ATOM     21  C16 UNL     1      13.293   9.338  12.452  0.00  0.00    +0.162 A 
ATOM     22  C17 UNL     1      12.944   8.251  11.643  0.00  0.00    +0.158 A 
ATOM     23  C18 UNL     1      11.893   8.342  10.729  0.00  0.00    +0.049 A 
ATOM     24  C19 UNL     1      11.179   9.535  10.614  0.00  0.00    +0.007 A 
BRANCH  22  25
ATOM     25  O4  UNL     1      13.642   7.078  11.758  0.00  0.00    -0.503 OA
ATOM     26  H18 UNL     1      13.063   6.339  11.518  0.00  0.00    +0.292 HD
ENDBRANCH  22  25
BRANCH  21  27
ATOM     27  O5  UNL     1      14.335   9.144  13.321  0.00  0.00    -0.491 OA
ATOM     28  C20 UNL     1      14.203   9.706  14.620  0.00  0.00    +0.277 C 
ENDBRANCH  21  27
ENDBRANCH  18  19
ENDBRANCH   6  18
TORSDOF 8
ENDMDL
MODEL 5
REMARK VINA RESULT:    -4.263      0.612      5.485
REMARK INTER + INTRA:          -7.726
REMARK INTER:                  -5.976
REMARK INTRA:                  -1.750
REMARK UNBOUND:                -1.719
REMARK  Name = data/mahkota_dewa_dn/results/docking/ligands/pdb/Matairesinol.pdb
REMARK  10 active torsions:
REMARK  status: ('A' for Active; 'I' for Inactive)
REMARK    1  A    between atoms: C1_1  and  O1_2
REMARK    2  A    between atoms: O1_2  and  C2_3
REMARK    3  A    between atoms: C3_4  and  O6_26
REMARK    4  A    between atoms: C6_7  and  C8_9
REMARK    5  A    between atoms: C8_9  and  C9_10
REMARK    6  A    between atoms: C12_15  and  C13_16
REMARK    7  A    between atoms: C13_16  and  C14_17
REMARK    8  A    between atoms: C16_19  and  O5_24
REMARK    9  A    between atoms: C17_20  and  O4_23
REMARK   10  A    between atoms: O5_24  and  C20_25
REMARK                            x       y       z     vdW  Elec       q    Type
REMARK                         _______ _______ _______ _____ _____    ______ ____
ROOT
ATOM      1  C9  UNL     1      14.496  12.737   9.394  0.00  0.00    +0.045 C 
ATOM      2  C10 UNL     1      15.836  13.442   9.465  0.00  0.00    +0.236 C 
ATOM      3  O2  UNL     1      15.723  14.349  10.561  0.00  0.00    -0.464 OA
ATOM      4  C11 UNL     1      14.753  13.908  11.415  0.00  0.00    +0.311 C 
ATOM      5  O3  UNL     1      14.482  14.454  12.471  0.00  0.00    -0.251 OA
ATOM      6  C12 UNL     1      14.110  12.652  10.874  0.00  0.00    +0.109 C 
ENDROOT
BRANCH   1   7
ATOM      7  C8  UNL     1      13.445  13.553   8.606  0.00  0.00    +0.043 C 
BRANCH   7  12
ATOM      8  C2  UNL     1       9.807  12.383   8.668  0.00  0.00    +0.162 A 
ATOM      9  C3  UNL     1       9.860  11.332   7.742  0.00  0.00    +0.158 A 
ATOM     10  C4  UNL     1      11.054  10.993   7.105  0.00  0.00    +0.049 A 
ATOM     11  C5  UNL     1      12.216  11.710   7.390  0.00  0.00    +0.007 A 
ATOM     12  C6  UNL     1      12.188  12.768   8.308  0.00  0.00    -0.043 A 
ATOM     13  C7  UNL     1      10.979  13.093   8.946  0.00  0.00    +0.053 A 
BRANCH   8  15
ATOM     14  C1  UNL     1       8.485  12.557  10.647  0.00  0.00    +0.277 C 
ATOM     15  O1  UNL     1       8.583  12.631   9.233  0.00  0.00    -0.491 OA
ENDBRANCH   8  15
BRANCH   9  16
ATOM     16  O6  UNL     1       8.718  10.630   7.460  0.00  0.00    -0.503 OA
ATOM     17  H22 UNL     1       8.949   9.833   6.962  0.00  0.00    +0.292 HD
ENDBRANCH   9  16
ENDBRANCH   7  12
ENDBRANCH   1   7
BRANCH   6  18
ATOM     18  C13 UNL     1      14.705  11.423  11.576  0.00  0.00    +0.050 C 
BRANCH  18  19
ATOM     19  C14 UNL     1      13.792  10.220  11.491  0.00  0.00    -0.043 A 
ATOM     20  C15 UNL     1      14.159   9.004  12.092  0.00  0.00    +0.053 A 
ATOM     21  C16 UNL     1      13.311   7.892  12.040  0.00  0.00    +0.162 A 
ATOM     22  C17 UNL     1      12.094   8.005  11.357  0.00  0.00    +0.158 A 
ATOM     23  C18 UNL     1      11.716   9.205  10.755  0.00  0.00    +0.049 A 
ATOM     24  C19 UNL     1      12.562  10.311  10.828  0.00  0.00    +0.007 A 
BRANCH  22  25
ATOM     25  O4  UNL     1      11.261   6.919  11.288  0.00  0.00    -0.503 OA
ATOM     26  H18 UNL     1      11.723   6.141  11.636  0.00  0.00    +0.292 HD
ENDBRANCH  22  25
BRANCH  21  27
ATOM     27  O5  UNL     1      13.586   6.672  12.601  0.00  0.00    -0.491 OA
ATOM     28  C20 UNL     1      14.736   5.988  12.122  0.00  0.00    +0.277 C 
ENDBRANCH  21  27
ENDBRANCH  18  19
ENDBRANCH   6  18
TORSDOF 8
ENDMDL
MODEL 6
REMARK VINA RESULT:    -4.260      6.978     11.515
REMARK INTER + INTRA:          -7.722
REMARK INTER:                  -5.919
REMARK INTRA:                  -1.802
REMARK UNBOUND:                -1.719
REMARK  Name = data/mahkota_dewa_dn/results/docking/ligands/pdb/Matairesinol.pdb
REMARK  10 active torsions:
REMARK  status: ('A' for Active; 'I' for Inactive)
REMARK    1  A    between atoms: C1_1  and  O1_2
REMARK    2  A    between atoms: O1_2  and  C2_3
REMARK    3  A    between atoms: C3_4  and  O6_26
REMARK    4  A    between atoms: C6_7  and  C8_9
REMARK    5  A    between atoms: C8_9  and  C9_10
REMARK    6  A    between atoms: C12_15  and  C13_16
REMARK    7  A    between atoms: C13_16  and  C14_17
REMARK    8  A    between atoms: C16_19  and  O5_24
REMARK    9  A    between atoms: C17_20  and  O4_23
REMARK   10  A    between atoms: O5_24  and  C20_25
REMARK                            x       y       z     vdW  Elec       q    Type
REMARK                         _______ _______ _______ _____ _____    ______ ____
ROOT
ATOM      1  C9  UNL     1      17.643   0.830  12.382  0.00  0.00    +0.045 C 
ATOM      2  C10 UNL     1      18.641   0.856  11.241  0.00  0.00    +0.236 C 
ATOM      3  O2  UNL     1      18.096  -0.012  10.248  0.00  0.00    -0.464 OA
ATOM      4  C11 UNL     1      16.744  -0.105  10.422  0.00  0.00    +0.311 C 
ATOM      5  O3  UNL     1      16.008  -0.731   9.679  0.00  0.00    -0.251 OA
ATOM      6  C12 UNL     1      16.315   0.695  11.629  0.00  0.00    +0.109 C 
ENDROOT
BRANCH   1   7
ATOM      7  C8  UNL     1      17.857  -0.377  13.323  0.00  0.00    +0.043 C 
BRANCH   7  12
ATOM      8  C2  UNL     1      17.337   1.598  16.553  0.00  0.00    +0.162 A 
ATOM      9  C3  UNL     1      17.883   0.709  17.488  0.00  0.00    +0.158 A 
ATOM     10  C4  UNL     1      18.422  -0.514  17.090  0.00  0.00    +0.049 A 
ATOM     11  C5  UNL     1      18.418  -0.863  15.739  0.00  0.00    +0.007 A 
ATOM     12  C6  UNL     1      17.873   0.006  14.785  0.00  0.00    -0.043 A 
ATOM     13  C7  UNL     1      17.340   1.238  15.202  0.00  0.00    +0.053 A 
BRANCH   8  15
ATOM     14  C1  UNL     1      17.588   3.954  16.840  0.00  0.00    +0.277 C 
ATOM     15  O1  UNL     1      16.834   2.770  17.054  0.00  0.00    -0.491 OA
ENDBRANCH   8  15
BRANCH   9  16
ATOM     16  O6  UNL     1      17.885   1.051  18.815  0.00  0.00    -0.503 OA
ATOM     17  H22 UNL     1      17.792   0.249  19.350  0.00  0.00    +0.292 HD
ENDBRANCH   9  16
ENDBRANCH   7  12
ENDBRANCH   1   7
BRANCH   6  18
ATOM     18  C13 UNL     1      15.745   2.048  11.178  0.00  0.00    +0.050 C 
BRANCH  18  19
ATOM     19  C14 UNL     1      15.441   2.958  12.347  0.00  0.00    -0.043 A 
ATOM     20  C15 UNL     1      15.994   4.249  12.407  0.00  0.00    +0.053 A 
ATOM     21  C16 UNL     1      15.700   5.107  13.473  0.00  0.00    +0.162 A 
ATOM     22  C17 UNL     1      14.859   4.650  14.494  0.00  0.00    +0.158 A 
ATOM     23  C18 UNL     1      14.302   3.371  14.448  0.00  0.00    +0.049 A 
ATOM     24  C19 UNL     1      14.589   2.531  13.373  0.00  0.00    +0.007 A 
BRANCH  22  25
ATOM     25  O4  UNL     1      14.574   5.477  15.548  0.00  0.00    -0.503 OA
ATOM     26  H18 UNL     1      14.457   6.381  15.220  0.00  0.00    +0.292 HD
ENDBRANCH  22  25
BRANCH  21  27
ATOM     27  O5  UNL     1      16.190   6.380  13.608  0.00  0.00    -0.491 OA
ATOM     28  C20 UNL     1      15.662   7.369  12.734  0.00  0.00    +0.277 C 
ENDBRANCH  21  27
ENDBRANCH  18  19
ENDBRANCH   6  18
TORSDOF 8
ENDMDL
MODEL 7
REMARK VINA RESULT:    -4.239      6.727     10.521
REMARK INTER + INTRA:          -7.692
REMARK INTER:                  -6.218
REMARK INTRA:                  -1.473
REMARK UNBOUND:                -1.719
REMARK  Name = data/mahkota_dewa_dn/results/docking/ligands/pdb/Matairesinol.pdb
REMARK  10 active torsions:
REMARK  status: ('A' for Active; 'I' for Inactive)
REMARK    1  A    between atoms: C1_1  and  O1_2
REMARK    2  A    between atoms: O1_2  and  C2_3
REMARK    3  A    between atoms: C3_4  and  O6_26
REMARK    4  A    between atoms: C6_7  and  C8_9
REMARK    5  A    between atoms: C8_9  and  C9_10
REMARK    6  A    between atoms: C12_15  and  C13_16
REMARK    7  A    between atoms: C13_16  and  C14_17
REMARK    8  A    between atoms: C16_19  and  O5_24
REMARK    9  A    between atoms: C17_20  and  O4_23
REMARK   10  A    between atoms: O5_24  and  C20_25
REMARK                            x       y       z     vdW  Elec       q    Type
REMARK                         _______ _______ _______ _____ _____    ______ ____
ROOT
ATOM      1  C9  UNL     1      17.209   4.497  10.432  0.00  0.00    +0.045 C 
ATOM      2  C10 UNL     1      18.143   5.618  10.019  0.00  0.00    +0.236 C 
ATOM      3  O2  UNL     1      17.323   6.784   9.961  0.00  0.00    -0.464 OA
ATOM      4  C11 UNL     1      16.228   6.608  10.758  0.00  0.00    +0.311 C 
ATOM      5  O3  UNL     1      15.385   7.468  10.949  0.00  0.00    -0.251 OA
ATOM      6  C12 UNL     1      16.244   5.228  11.372  0.00  0.00    +0.109 C 
ENDROOT
BRANCH   1   7
ATOM      7  C8  UNL     1      16.443   3.897   9.231  0.00  0.00    +0.043 C 
BRANCH   7  12
ATOM      8  C2  UNL     1      15.838   0.260   8.224  0.00  0.00    +0.162 A 
ATOM      9  C3  UNL     1      16.062  -0.385   9.448  0.00  0.00    +0.158 A 
ATOM     10  C4  UNL     1      16.398   0.337  10.592  0.00  0.00    +0.049 A 
ATOM     11  C5  UNL     1      16.516   1.726  10.522  0.00  0.00    +0.007 A 
ATOM     12  C6  UNL     1      16.302   2.394   9.310  0.00  0.00    -0.043 A 
ATOM     13  C7  UNL     1      15.958   1.652   8.167  0.00  0.00    +0.053 A 
BRANCH   8  15
ATOM     14  C1  UNL     1      14.531  -0.076   6.255  0.00  0.00    +0.277 C 
ATOM     15  O1  UNL     1      15.515  -0.547   7.164  0.00  0.00    -0.491 OA
ENDBRANCH   8  15
BRANCH   9  16
ATOM     16  O6  UNL     1      15.948  -1.749   9.516  0.00  0.00    -0.503 OA
ATOM     17  H22 UNL     1      15.010  -1.989   9.554  0.00  0.00    +0.292 HD
ENDBRANCH   9  16
ENDBRANCH   7  12
ENDBRANCH   1   7
BRANCH   6  18
ATOM     18  C13 UNL     1      16.765   5.310  12.815  0.00  0.00    +0.050 C 
BRANCH  18  19
ATOM     19  C14 UNL     1      16.142   4.260  13.707  0.00  0.00    -0.043 A 
ATOM     20  C15 UNL     1      16.729   3.933  14.941  0.00  0.00    +0.053 A 
ATOM     21  C16 UNL     1      16.148   2.980  15.784  0.00  0.00    +0.162 A 
ATOM     22  C17 UNL     1      14.976   2.337  15.367  0.00  0.00    +0.158 A 
ATOM     23  C18 UNL     1      14.381   2.650  14.145  0.00  0.00    +0.049 A 
ATOM     24  C19 UNL     1      14.960   3.614  13.320  0.00  0.00    +0.007 A 
BRANCH  22  25
ATOM     25  O4  UNL     1      14.405   1.392  16.178  0.00  0.00    -0.503 OA
ATOM     26  H18 UNL     1      14.561   0.513  15.801  0.00  0.00    +0.292 HD
ENDBRANCH  22  25
BRANCH  21  27
ATOM     27  O5  UNL     1      16.650   2.605  17.003  0.00  0.00    -0.491 OA
ATOM     28  C20 UNL     1      17.898   1.925  17.004  0.00  0.00    +0.277 C 
ENDBRANCH  21  27
ENDBRANCH  18  19
ENDBRANCH   6  18
TORSDOF 8
ENDMDL
MODEL 8
REMARK VINA RESULT:    -4.232      3.870      6.610
REMARK INTER + INTRA:          -7.682
REMARK INTER:                  -6.249
REMARK INTRA:                  -1.433
REMARK UNBOUND:                -1.719
REMARK  Name = data/mahkota_dewa_dn/results/docking/ligands/pdb/Matairesinol.pdb
REMARK  10 active torsions:
REMARK  status: ('A' for Active; 'I' for Inactive)
REMARK    1  A    between atoms: C1_1  and  O1_2
REMARK    2  A    between atoms: O1_2  and  C2_3
REMARK    3  A    between atoms: C3_4  and  O6_26
REMARK    4  A    between atoms: C6_7  and  C8_9
REMARK    5  A    between atoms: C8_9  and  C9_10
REMARK    6  A    between atoms: C12_15  and  C13_16
REMARK    7  A    between atoms: C13_16  and  C14_17
REMARK    8  A    between atoms: C16_19  and  O5_24
REMARK    9  A    between atoms: C17_20  and  O4_23
REMARK   10  A    between atoms: O5_24  and  C20_25
REMARK                            x       y       z     vdW  Elec       q    Type
REMARK                         _______ _______ _______ _____ _____    ______ ____
ROOT
ATOM      1  C9  UNL     1      15.237   7.957  16.466  0.00  0.00    +0.045 C 
ATOM      2  C10 UNL     1      15.111   8.608  17.830  0.00  0.00    +0.236 C 
ATOM      3  O2  UNL     1      16.210   9.515  17.913  0.00  0.00    -0.464 OA
ATOM      4  C11 UNL     1      16.615   9.851  16.653  0.00  0.00    +0.311 C 
ATOM      5  O3  UNL     1      17.497  10.660  16.419  0.00  0.00    -0.251 OA
ATOM      6  C12 UNL     1      15.797   9.107  15.623  0.00  0.00    +0.109 C 
ENDROOT
BRANCH   1   7
ATOM      7  C8  UNL     1      16.218   6.763  16.474  0.00  0.00    +0.043 C 
BRANCH   7  12
ATOM      8  C2  UNL     1      15.446   3.107  15.671  0.00  0.00    +0.162 A 
ATOM      9  C3  UNL     1      14.614   3.260  14.554  0.00  0.00    +0.158 A 
ATOM     10  C4  UNL     1      14.305   4.525  14.054  0.00  0.00    +0.049 A 
ATOM     11  C5  UNL     1      14.830   5.659  14.674  0.00  0.00    +0.007 A 
ATOM     12  C6  UNL     1      15.660   5.533  15.795  0.00  0.00    -0.043 A 
ATOM     13  C7  UNL     1      15.967   4.251  16.283  0.00  0.00    +0.053 A 
BRANCH   8  15
ATOM     14  C1  UNL     1      17.007   1.324  15.956  0.00  0.00    +0.277 C 
ATOM     15  O1  UNL     1      15.682   1.820  16.078  0.00  0.00    -0.491 OA
ENDBRANCH   8  15
BRANCH   9  16
ATOM     16  O6  UNL     1      14.096   2.146  13.947  0.00  0.00    -0.503 OA
ATOM     17  H22 UNL     1      14.591   1.366  14.238  0.00  0.00    +0.292 HD
ENDBRANCH   9  16
ENDBRANCH   7  12
ENDBRANCH   1   7
BRANCH   6  18
ATOM     18  C13 UNL     1      14.701  10.029  15.069  0.00  0.00    +0.050 C 
BRANCH  18  19
ATOM     19  C14 UNL     1      14.267   9.627  13.677  0.00  0.00    -0.043 A 
ATOM     20  C15 UNL     1      13.040  10.072  13.156  0.00  0.00    +0.053 A 
ATOM     21  C16 UNL     1      12.641   9.725  11.861  0.00  0.00    +0.162 A 
ATOM     22  C17 UNL     1      13.477   8.904  11.095  0.00  0.00    +0.158 A 
ATOM     23  C18 UNL     1      14.698   8.453  11.598  0.00  0.00    +0.049 A 
ATOM     24  C19 UNL     1      15.094   8.820  12.884  0.00  0.00    +0.007 A 
BRANCH  22  25
ATOM     25  O4  UNL     1      13.090   8.546   9.831  0.00  0.00    -0.503 OA
ATOM     26  H18 UNL     1      12.177   8.836   9.684  0.00  0.00    +0.292 HD
ENDBRANCH  22  25
BRANCH  21  27
ATOM     27  O5  UNL     1      11.467  10.118  11.274  0.00  0.00    -0.491 OA
ATOM     28  C20 UNL     1      11.159  11.506  11.317  0.00  0.00    +0.277 C 
ENDBRANCH  21  27
ENDBRANCH  18  19
ENDBRANCH   6  18
TORSDOF 8
ENDMDL
MODEL 9
REMARK VINA RESULT:    -4.160      5.590      9.764
REMARK INTER + INTRA:          -7.581
REMARK INTER:                  -5.574
REMARK INTRA:                  -2.008
REMARK UNBOUND:                -1.719
REMARK  Name = data/mahkota_dewa_dn/results/docking/ligands/pdb/Matairesinol.pdb
REMARK  10 active torsions:
REMARK  status: ('A' for Active; 'I' for Inactive)
REMARK    1  A    between atoms: C1_1  and  O1_2
REMARK    2  A    between atoms: O1_2  and  C2_3
REMARK    3  A    between atoms: C3_4  and  O6_26
REMARK    4  A    between atoms: C6_7  and  C8_9
REMARK    5  A    between atoms: C8_9  and  C9_10
REMARK    6  A    between atoms: C12_15  and  C13_16
REMARK    7  A    between atoms: C13_16  and  C14_17
REMARK    8  A    between atoms: C16_19  and  O5_24
REMARK    9  A    between atoms: C17_20  and  O4_23
REMARK   10  A    between atoms: O5_24  and  C20_25
REMARK                            x       y       z     vdW  Elec       q    Type
REMARK                         _______ _______ _______ _____ _____    ______ ____
ROOT
ATOM      1  C9  UNL     1      16.284   5.912  12.045  0.00  0.00    +0.045 C 
ATOM      2  C10 UNL     1      16.898   7.297  12.090  0.00  0.00    +0.236 C 
ATOM      3  O2  UNL     1      15.874   8.175  11.625  0.00  0.00    -0.464 OA
ATOM      4  C11 UNL     1      14.655   7.591  11.819  0.00  0.00    +0.311 C 
ATOM      5  O3  UNL     1      13.595   8.139  11.571  0.00  0.00    -0.251 OA
ATOM      6  C12 UNL     1      14.824   6.208  12.404  0.00  0.00    +0.109 C 
ENDROOT
BRANCH   1   7
ATOM      7  C8  UNL     1      16.377   5.273  10.641  0.00  0.00    +0.043 C 
BRANCH   7  12
ATOM      8  C2  UNL     1      16.856   1.716  11.954  0.00  0.00    +0.162 A 
ATOM      9  C3  UNL     1      16.732   0.985  10.765  0.00  0.00    +0.158 A 
ATOM     10  C4  UNL     1      16.505   1.625   9.546  0.00  0.00    +0.049 A 
ATOM     11  C5  UNL     1      16.395   3.015   9.507  0.00  0.00    +0.007 A 
ATOM     12  C6  UNL     1      16.509   3.768  10.682  0.00  0.00    -0.043 A 
ATOM     13  C7  UNL     1      16.745   3.109  11.901  0.00  0.00    +0.053 A 
BRANCH   8  15
ATOM     14  C1  UNL     1      18.211   1.322  13.879  0.00  0.00    +0.277 C 
ATOM     15  O1  UNL     1      17.077   0.986  13.093  0.00  0.00    -0.491 OA
ENDBRANCH   8  15
BRANCH   9  16
ATOM     16  O6  UNL     1      16.838  -0.380  10.804  0.00  0.00    -0.503 OA
ATOM     17  H22 UNL     1      17.211  -0.646  11.658  0.00  0.00    +0.292 HD
ENDBRANCH   9  16
ENDBRANCH   7  12
ENDBRANCH   1   7
BRANCH   6  18
ATOM     18  C13 UNL     1      14.579   6.255  13.920  0.00  0.00    +0.050 C 
BRANCH  18  19
ATOM     19  C14 UNL     1      14.838   4.919  14.580  0.00  0.00    -0.043 A 
ATOM     20  C15 UNL     1      15.839   4.789  15.558  0.00  0.00    +0.053 A 
ATOM     21  C16 UNL     1      16.070   3.564  16.192  0.00  0.00    +0.162 A 
ATOM     22  C17 UNL     1      15.299   2.456  15.819  0.00  0.00    +0.158 A 
ATOM     23  C18 UNL     1      14.302   2.568  14.850  0.00  0.00    +0.049 A 
ATOM     24  C19 UNL     1      14.069   3.799  14.237  0.00  0.00    +0.007 A 
BRANCH  22  25
ATOM     25  O4  UNL     1      15.525   1.248  16.423  0.00  0.00    -0.503 OA
ATOM     26  H18 UNL     1      16.163   1.367  17.143  0.00  0.00    +0.292 HD
ENDBRANCH  22  25
BRANCH  21  27
ATOM     27  O5  UNL     1      17.019   3.350  17.157  0.00  0.00    -0.491 OA
ATOM     28  C20 UNL     1      18.353   3.730  16.844  0.00  0.00    +0.277 C 
ENDBRANCH  21  27
ENDBRANCH  18  19
ENDBRANCH   6  18
TORSDOF 8
ENDMDL
