MODEL 1
REMARK VINA RESULT:    -5.007      0.000      0.000
REMARK INTER + INTRA:         -13.129
REMARK INTER:                  -8.958
REMARK INTRA:                  -4.171
REMARK UNBOUND:                -4.171
REMARK  Name = data/mahkota_dewa_dn/results/docking/ligands/pdb/Atorvastatin.pdb
REMARK  17 active torsions:
REMARK  status: ('A' for Active; 'I' for Inactive)
REMARK    1  A    between atoms: C1_1  and  C2_2
REMARK    2  A    between atoms: C2_2  and  C3_3
REMARK    3  A    between atoms: C2_2  and  C4_4
REMARK    4  A    between atoms: C5_5  and  C6_6
REMARK    5  A    between atoms: N1_8  and  C7_9
REMARK    6  A    between atoms: C13_15  and  C28_36
REMARK    7  A    between atoms: C14_16  and  C15_17
REMARK    8  A    between atoms: N2_24  and  C21_25
REMARK    9  A    between atoms: C21_25  and  C22_26
REMARK   10  A    between atoms: C22_26  and  C23_27
REMARK   11  A    between atoms: C23_27  and  O2_28
REMARK   12  A    between atoms: C23_27  and  C24_29
REMARK   13  A    between atoms: C24_29  and  C25_30
REMARK   14  A    between atoms: C25_30  and  O3_31
REMARK   15  A    between atoms: C25_30  and  C26_32
REMARK   16  A    between atoms: C26_32  and  C27_33
REMARK   17  A    between atoms: C27_33  and  O5_35
REMARK                            x       y       z     vdW  Elec       q    Type
REMARK                         _______ _______ _______ _____ _____    ______ ____
ROOT
ATOM      1  C4  UNL     1      16.145   4.741  14.501  0.00  0.00    +0.035 A 
ATOM      2  C5  UNL     1      15.515   5.955  14.791  0.00  0.00    +0.066 A 
ATOM      3  C13 UNL     1      16.052   6.419  16.038  0.00  0.00    +0.020 A 
ATOM      4  C14 UNL     1      16.977   5.488  16.487  0.00  0.00    +0.058 A 
ATOM      5  N2  UNL     1      17.004   4.461  15.557  0.00  0.00    -0.342 N 
ENDROOT
BRANCH   4   6
ATOM      6  C15 UNL     1      17.747   5.476  17.733  0.00  0.00    -0.001 A 
ATOM      7  C16 UNL     1      19.008   6.085  17.793  0.00  0.00    +0.013 A 
ATOM      8  C17 UNL     1      19.735   6.075  18.984  0.00  0.00    +0.039 A 
ATOM      9  C18 UNL     1      19.196   5.462  20.111  0.00  0.00    +0.123 A 
ATOM     10  F1  UNL     1      19.895   5.454  21.253  0.00  0.00    -0.205 F 
ATOM     11  C19 UNL     1      17.943   4.863  20.070  0.00  0.00    +0.039 A 
ATOM     12  C20 UNL     1      17.215   4.871  18.880  0.00  0.00    +0.013 A 
ENDBRANCH   4   6
BRANCH   3  13
ATOM     13  C28 UNL     1      15.676   7.603  16.801  0.00  0.00    -0.015 A 
ATOM     14  C29 UNL     1      14.865   7.471  17.937  0.00  0.00    +0.011 A 
ATOM     15  C30 UNL     1      14.475   8.603  18.656  0.00  0.00    +0.039 A 
ATOM     16  C31 UNL     1      14.895   9.859  18.236  0.00  0.00    +0.123 A 
ATOM     17  F2  UNL     1      14.519  10.944  18.925  0.00  0.00    -0.205 F 
ATOM     18  C32 UNL     1      15.696  10.009  17.110  0.00  0.00    +0.039 A 
ATOM     19  C33 UNL     1      16.086   8.879  16.388  0.00  0.00    +0.011 A 
ENDBRANCH   3  13
BRANCH   2  20
ATOM     20  C6  UNL     1      14.485   6.617  13.976  0.00  0.00    +0.251 C 
ATOM     21  O1  UNL     1      13.333   6.201  13.944  0.00  0.00    -0.270 OA
ATOM     22  N1  UNL     1      14.973   7.710  13.286  0.00  0.00    -0.281 N 
ATOM     23  H8  UNL     1      15.956   7.907  13.415  0.00  0.00    +0.155 HD
BRANCH  22  24
ATOM     24  C7  UNL     1      14.269   8.593  12.445  0.00  0.00    +0.034 A 
ATOM     25  C8  UNL     1      13.524   9.605  13.066  0.00  0.00    +0.023 A 
ATOM     26  C9  UNL     1      12.794  10.521  12.306  0.00  0.00    +0.002 A 
ATOM     27  C10 UNL     1      12.801  10.435  10.916  0.00  0.00    +0.000 A 
ATOM     28  C11 UNL     1      13.538   9.432  10.291  0.00  0.00    +0.002 A 
ATOM     29  C12 UNL     1      14.269   8.513  11.051  0.00  0.00    +0.023 A 
ENDBRANCH  22  24
ENDBRANCH   2  20
BRANCH   1  31
ATOM     30  C1  UNL     1      16.168   4.529  11.968  0.00  0.00    +0.014 C 
ATOM     31  C2  UNL     1      16.000   3.811  13.308  0.00  0.00    +0.030 C 
ATOM     32  C3  UNL     1      14.696   3.015  13.366  0.00  0.00    +0.014 C 
ENDBRANCH   1  31
BRANCH   5  33
ATOM     33  C21 UNL     1      17.782   3.232  15.710  0.00  0.00    +0.124 C 
BRANCH  33  34
ATOM     34  C22 UNL     1      16.933   2.065  16.220  0.00  0.00    +0.053 C 
BRANCH  34  35
ATOM     35  C23 UNL     1      17.386   1.616  17.611  0.00  0.00    +0.119 C 
BRANCH  35  36
ATOM     36  O2  UNL     1      16.418   0.727  18.147  0.00  0.00    -0.392 OA
ATOM     37  H23 UNL     1      16.486  -0.124  17.678  0.00  0.00    +0.210 HD
ENDBRANCH  35  36
BRANCH  35  38
ATOM     38  C24 UNL     1      18.772   0.966  17.611  0.00  0.00    +0.063 C 
BRANCH  38  39
ATOM     39  C25 UNL     1      19.424   0.691  18.979  0.00  0.00    +0.128 C 
BRANCH  39  40
ATOM     40  O3  UNL     1      18.668   1.440  19.948  0.00  0.00    -0.391 OA
ATOM     41  H27 UNL     1      19.162   2.255  20.144  0.00  0.00    +0.210 HD
ENDBRANCH  39  40
BRANCH  39  42
ATOM     42  C26 UNL     1      19.379  -0.771  19.430  0.00  0.00    +0.151 C 
BRANCH  42  43
ATOM     43  C27 UNL     1      18.326  -1.101  20.448  0.00  0.00    +0.307 C 
ATOM     44  O4  UNL     1      18.532  -1.302  21.636  0.00  0.00    -0.251 OA
BRANCH  43  45
ATOM     45  O5  UNL     1      17.093  -1.283  19.941  0.00  0.00    -0.481 OA
ATOM     46  H30 UNL     1      16.643  -0.433  20.136  0.00  0.00    +0.295 HD
ENDBRANCH  43  45
ENDBRANCH  42  43
ENDBRANCH  39  42
ENDBRANCH  38  39
ENDBRANCH  35  38
ENDBRANCH  34  35
ENDBRANCH  33  34
ENDBRANCH   5  33
TORSDOF 15
ENDMDL
MODEL 2
REMARK VINA RESULT:    -4.947      1.939      8.877
REMARK INTER + INTRA:         -13.022
REMARK INTER:                  -9.678
REMARK INTRA:                  -3.343
REMARK UNBOUND:                -4.171
REMARK  Name = data/mahkota_dewa_dn/results/docking/ligands/pdb/Atorvastatin.pdb
REMARK  17 active torsions:
REMARK  status: ('A' for Active; 'I' for Inactive)
REMARK    1  A    between atoms: C1_1  and  C2_2
REMARK    2  A    between atoms: C2_2  and  C3_3
REMARK    3  A    between atoms: C2_2  and  C4_4
REMARK    4  A    between atoms: C5_5  and  C6_6
REMARK    5  A    between atoms: N1_8  and  C7_9
REMARK    6  A    between atoms: C13_15  and  C28_36
REMARK    7  A    between atoms: C14_16  and  C15_17
REMARK    8  A    between atoms: N2_24  and  C21_25
REMARK    9  A    between atoms: C21_25  and  C22_26
REMARK   10  A    between atoms: C22_26  and  C23_27
REMARK   11  A    between atoms: C23_27  and  O2_28
REMARK   12  A    between atoms: C23_27  and  C24_29
REMARK   13  A    between atoms: C24_29  and  C25_30
REMARK   14  A    between atoms: C25_30  and  O3_31
REMARK   15  A    between atoms: C25_30  and  C26_32
REMARK   16  A    between atoms: C26_32  and  C27_33
REMARK   17  A    between atoms: C27_33  and  O5_35
REMARK                            x       y       z     vdW  Elec       q    Type
REMARK                         _______ _______ _______ _____ _____    ______ ____
ROOT
ATOM      1  C4  UNL     1      16.328   3.467  15.963  0.00  0.00    +0.035 A 
ATOM      2  C5  UNL     1      17.307   3.430  16.960  0.00  0.00    +0.066 A 
ATOM      3  C13 UNL     1      17.270   4.697  17.633  0.00  0.00    +0.020 A 
ATOM      4  C14 UNL     1      16.292   5.479  17.034  0.00  0.00    +0.058 A 
ATOM      5  N2  UNL     1      15.747   4.729  16.005  0.00  0.00    -0.342 N 
ENDROOT
BRANCH   4   6
ATOM      6  C15 UNL     1      15.914   6.866  17.317  0.00  0.00    -0.001 A 
ATOM      7  C16 UNL     1      16.548   7.924  16.652  0.00  0.00    +0.013 A 
ATOM      8  C17 UNL     1      16.180   9.242  16.922  0.00  0.00    +0.039 A 
ATOM      9  C18 UNL     1      15.177   9.497  17.851  0.00  0.00    +0.123 A 
ATOM     10  F1  UNL     1      14.825  10.763  18.109  0.00  0.00    -0.205 F 
ATOM     11  C19 UNL     1      14.531   8.458  18.512  0.00  0.00    +0.039 A 
ATOM     12  C20 UNL     1      14.899   7.139  18.244  0.00  0.00    +0.013 A 
ENDBRANCH   4   6
BRANCH   3  13
ATOM     13  C28 UNL     1      18.134   5.181  18.702  0.00  0.00    -0.015 A 
ATOM     14  C29 UNL     1      17.888   4.793  20.026  0.00  0.00    +0.011 A 
ATOM     15  C30 UNL     1      18.693   5.276  21.060  0.00  0.00    +0.039 A 
ATOM     16  C31 UNL     1      19.739   6.143  20.766  0.00  0.00    +0.123 A 
ATOM     17  F2  UNL     1      20.510   6.607  21.758  0.00  0.00    -0.205 F 
ATOM     18  C32 UNL     1      19.995   6.541  19.459  0.00  0.00    +0.039 A 
ATOM     19  C33 UNL     1      19.190   6.062  18.424  0.00  0.00    +0.011 A 
ENDBRANCH   3  13
BRANCH   2  20
ATOM     20  C6  UNL     1      18.213   2.307  17.250  0.00  0.00    +0.251 C 
ATOM     21  O1  UNL     1      19.147   2.034  16.506  0.00  0.00    -0.270 OA
ATOM     22  N1  UNL     1      17.877   1.639  18.411  0.00  0.00    -0.281 N 
ATOM     23  H8  UNL     1      17.063   1.988  18.899  0.00  0.00    +0.155 HD
BRANCH  22  24
ATOM     24  C7  UNL     1      18.537   0.547  19.007  0.00  0.00    +0.034 A 
ATOM     25  C8  UNL     1      18.221  -0.729  18.522  0.00  0.00    +0.023 A 
ATOM     26  C9  UNL     1      18.828  -1.867  19.060  0.00  0.00    +0.002 A 
ATOM     27  C10 UNL     1      19.756  -1.739  20.089  0.00  0.00    +0.000 A 
ATOM     28  C11 UNL     1      20.075  -0.475  20.578  0.00  0.00    +0.002 A 
ATOM     29  C12 UNL     1      19.468   0.665  20.041  0.00  0.00    +0.023 A 
ENDBRANCH  22  24
ENDBRANCH   2  20
BRANCH   1  31
ATOM     30  C1  UNL     1      16.648   2.503  13.633  0.00  0.00    +0.014 C 
ATOM     31  C2  UNL     1      15.896   2.409  14.961  0.00  0.00    +0.030 C 
ATOM     32  C3  UNL     1      14.381   2.410  14.757  0.00  0.00    +0.014 C 
ENDBRANCH   1  31
BRANCH   5  33
ATOM     33  C21 UNL     1      14.747   5.229  15.062  0.00  0.00    +0.124 C 
BRANCH  33  34
ATOM     34  C22 UNL     1      15.382   5.935  13.860  0.00  0.00    +0.053 C 
BRANCH  34  35
ATOM     35  C23 UNL     1      14.330   6.674  13.031  0.00  0.00    +0.119 C 
BRANCH  35  36
ATOM     36  O2  UNL     1      13.042   6.378  13.548  0.00  0.00    -0.392 OA
ATOM     37  H23 UNL     1      12.815   5.463  13.307  0.00  0.00    +0.210 HD
ENDBRANCH  35  36
BRANCH  35  38
ATOM     38  C24 UNL     1      14.556   8.188  12.984  0.00  0.00    +0.063 C 
BRANCH  38  39
ATOM     39  C25 UNL     1      14.059   8.939  11.736  0.00  0.00    +0.128 C 
BRANCH  39  40
ATOM     40  O3  UNL     1      14.222   8.037  10.626  0.00  0.00    -0.391 OA
ATOM     41  H27 UNL     1      15.132   8.134  10.296  0.00  0.00    +0.210 HD
ENDBRANCH  39  40
BRANCH  39  42
ATOM     42  C26 UNL     1      12.578   9.325  11.766  0.00  0.00    +0.151 C 
BRANCH  42  43
ATOM     43  C27 UNL     1      11.671   8.479  10.920  0.00  0.00    +0.307 C 
ATOM     44  O4  UNL     1      11.253   7.371  11.224  0.00  0.00    -0.251 OA
BRANCH  43  45
ATOM     45  O5  UNL     1      11.417   8.979   9.697  0.00  0.00    -0.481 OA
ATOM     46  H30 UNL     1      11.927   9.817   9.688  0.00  0.00    +0.295 HD
ENDBRANCH  43  45
ENDBRANCH  42  43
ENDBRANCH  39  42
ENDBRANCH  38  39
ENDBRANCH  35  38
ENDBRANCH  34  35
ENDBRANCH  33  34
ENDBRANCH   5  33
TORSDOF 15
ENDMDL
MODEL 3
REMARK VINA RESULT:    -4.924      2.862      5.484
REMARK INTER + INTRA:         -12.981
REMARK INTER:                  -8.712
REMARK INTRA:                  -4.269
REMARK UNBOUND:                -4.171
REMARK  Name = data/mahkota_dewa_dn/results/docking/ligands/pdb/Atorvastatin.pdb
REMARK  17 active torsions:
REMARK  status: ('A' for Active; 'I' for Inactive)
REMARK    1  A    between atoms: C1_1  and  C2_2
REMARK    2  A    between atoms: C2_2  and  C3_3
REMARK    3  A    between atoms: C2_2  and  C4_4
REMARK    4  A    between atoms: C5_5  and  C6_6
REMARK    5  A    between atoms: N1_8  and  C7_9
REMARK    6  A    between atoms: C13_15  and  C28_36
REMARK    7  A    between atoms: C14_16  and  C15_17
REMARK    8  A    between atoms: N2_24  and  C21_25
REMARK    9  A    between atoms: C21_25  and  C22_26
REMARK   10  A    between atoms: C22_26  and  C23_27
REMARK   11  A    between atoms: C23_27  and  O2_28
REMARK   12  A    between atoms: C23_27  and  C24_29
REMARK   13  A    between atoms: C24_29  and  C25_30
REMARK   14  A    between atoms: C25_30  and  O3_31
REMARK   15  A    between atoms: C25_30  and  C26_32
REMARK   16  A    between atoms: C26_32  and  C27_33
REMARK   17  A    between atoms: C27_33  and  O5_35
REMARK                            x       y       z     vdW  Elec       q    Type
REMARK                         _______ _______ _______ _____ _____    ______ ____
ROOT
ATOM      1  C4  UNL     1      17.475   5.187  16.384  0.00  0.00    +0.035 A 
ATOM      2  C5  UNL     1      16.845   6.281  15.786  0.00  0.00    +0.066 A 
ATOM      3  C13 UNL     1      16.303   5.823  14.538  0.00  0.00    +0.020 A 
ATOM      4  C14 UNL     1      16.619   4.481  14.393  0.00  0.00    +0.058 A 
ATOM      5  N2  UNL     1      17.354   4.114  15.509  0.00  0.00    -0.342 N 
ENDROOT
BRANCH   4   6
ATOM      6  C15 UNL     1      16.345   3.581  13.270  0.00  0.00    -0.001 A 
ATOM      7  C16 UNL     1      17.266   3.454  12.221  0.00  0.00    +0.013 A 
ATOM      8  C17 UNL     1      17.002   2.592  11.157  0.00  0.00    +0.039 A 
ATOM      9  C18 UNL     1      15.822   1.857  11.147  0.00  0.00    +0.123 A 
ATOM     10  F1  UNL     1      15.570   1.030  10.124  0.00  0.00    -0.205 F 
ATOM     11  C19 UNL     1      14.902   1.964  12.184  0.00  0.00    +0.039 A 
ATOM     12  C20 UNL     1      15.164   2.826  13.249  0.00  0.00    +0.013 A 
ENDBRANCH   4   6
BRANCH   3  13
ATOM     13  C28 UNL     1      15.611   6.596  13.513  0.00  0.00    -0.015 A 
ATOM     14  C29 UNL     1      14.210   6.612  13.481  0.00  0.00    +0.011 A 
ATOM     15  C30 UNL     1      13.540   7.325  12.484  0.00  0.00    +0.039 A 
ATOM     16  C31 UNL     1      14.271   8.016  11.526  0.00  0.00    +0.123 A 
ATOM     17  F2  UNL     1      13.628   8.698  10.570  0.00  0.00    -0.205 F 
ATOM     18  C32 UNL     1      15.661   8.008  11.542  0.00  0.00    +0.039 A 
ATOM     19  C33 UNL     1      16.334   7.294  12.535  0.00  0.00    +0.011 A 
ENDBRANCH   3  13
BRANCH   2  20
ATOM     20  C6  UNL     1      16.769   7.646  16.329  0.00  0.00    +0.251 C 
ATOM     21  O1  UNL     1      17.737   8.397  16.303  0.00  0.00    -0.270 OA
ATOM     22  N1  UNL     1      15.524   7.945  16.847  0.00  0.00    -0.281 N 
ATOM     23  H8  UNL     1      14.839   7.202  16.801  0.00  0.00    +0.155 HD
BRANCH  22  24
ATOM     24  C7  UNL     1      15.085   9.158  17.412  0.00  0.00    +0.034 A 
ATOM     25  C8  UNL     1      14.352  10.018  16.582  0.00  0.00    +0.023 A 
ATOM     26  C9  UNL     1      13.882  11.242  17.062  0.00  0.00    +0.002 A 
ATOM     27  C10 UNL     1      14.139  11.619  18.377  0.00  0.00    +0.000 A 
ATOM     28  C11 UNL     1      14.866  10.771  19.209  0.00  0.00    +0.002 A 
ATOM     29  C12 UNL     1      15.339   9.545  18.729  0.00  0.00    +0.023 A 
ENDBRANCH  22  24
ENDBRANCH   2  20
BRANCH   1  31
ATOM     30  C1  UNL     1      17.329   5.496  18.903  0.00  0.00    +0.014 C 
ATOM     31  C2  UNL     1      18.195   5.067  17.717  0.00  0.00    +0.030 C 
ATOM     32  C3  UNL     1      19.538   5.795  17.702  0.00  0.00    +0.014 C 
ENDBRANCH   1  31
BRANCH   5  33
ATOM     33  C21 UNL     1      17.964   2.798  15.698  0.00  0.00    +0.124 C 
BRANCH  33  34
ATOM     34  C22 UNL     1      17.010   1.805  16.367  0.00  0.00    +0.053 C 
BRANCH  34  35
ATOM     35  C23 UNL     1      17.373   1.592  17.838  0.00  0.00    +0.119 C 
BRANCH  35  36
ATOM     36  O2  UNL     1      16.562   0.556  18.370  0.00  0.00    -0.392 OA
ATOM     37  H23 UNL     1      15.846   0.368  17.737  0.00  0.00    +0.210 HD
ENDBRANCH  35  36
BRANCH  35  38
ATOM     38  C24 UNL     1      18.856   1.279  18.053  0.00  0.00    +0.063 C 
BRANCH  38  39
ATOM     39  C25 UNL     1      19.501   1.773  19.360  0.00  0.00    +0.128 C 
BRANCH  39  40
ATOM     40  O3  UNL     1      18.452   2.398  20.122  0.00  0.00    -0.391 OA
ATOM     41  H27 UNL     1      17.907   2.917  19.505  0.00  0.00    +0.210 HD
ENDBRANCH  39  40
BRANCH  39  42
ATOM     42  C26 UNL     1      20.081   0.668  20.248  0.00  0.00    +0.151 C 
BRANCH  42  43
ATOM     43  C27 UNL     1      19.260  -0.586  20.339  0.00  0.00    +0.307 C 
ATOM     44  O4  UNL     1      19.556  -1.661  19.836  0.00  0.00    -0.251 OA
BRANCH  43  45
ATOM     45  O5  UNL     1      18.067  -0.433  20.940  0.00  0.00    -0.481 OA
ATOM     46  H30 UNL     1      18.114  -1.059  21.694  0.00  0.00    +0.295 HD
ENDBRANCH  43  45
ENDBRANCH  42  43
ENDBRANCH  39  42
ENDBRANCH  38  39
ENDBRANCH  35  38
ENDBRANCH  34  35
ENDBRANCH  33  34
ENDBRANCH   5  33
TORSDOF 15
ENDMDL
MODEL 4
REMARK VINA RESULT:    -4.832      5.094      9.915
REMARK INTER + INTRA:         -12.816
REMARK INTER:                  -8.040
REMARK INTRA:                  -4.776
REMARK UNBOUND:                -4.171
REMARK  Name = data/mahkota_dewa_dn/results/docking/ligands/pdb/Atorvastatin.pdb
REMARK  17 active torsions:
REMARK  status: ('A' for Active; 'I' for Inactive)
REMARK    1  A    between atoms: C1_1  and  C2_2
REMARK    2  A    between atoms: C2_2  and  C3_3
REMARK    3  A    between atoms: C2_2  and  C4_4
REMARK    4  A    between atoms: C5_5  and  C6_6
REMARK    5  A    between atoms: N1_8  and  C7_9
REMARK    6  A    between atoms: C13_15  and  C28_36
REMARK    7  A    between atoms: C14_16  and  C15_17
REMARK    8  A    between atoms: N2_24  and  C21_25
REMARK    9  A    between atoms: C21_25  and  C22_26
REMARK   10  A    between atoms: C22_26  and  C23_27
REMARK   11  A    between atoms: C23_27  and  O2_28
REMARK   12  A    between atoms: C23_27  and  C24_29
REMARK   13  A    between atoms: C24_29  and  C25_30
REMARK   14  A    between atoms: C25_30  and  O3_31
REMARK   15  A    between atoms: C25_30  and  C26_32
REMARK   16  A    between atoms: C26_32  and  C27_33
REMARK   17  A    between atoms: C27_33  and  O5_35
REMARK                            x       y       z     vdW  Elec       q    Type
REMARK                         _______ _______ _______ _____ _____    ______ ____
ROOT
ATOM      1  C4  UNL     1      16.786   5.545   9.143  0.00  0.00    +0.035 A 
ATOM      2  C5  UNL     1      16.713   4.420   9.969  0.00  0.00    +0.066 A 
ATOM      3  C13 UNL     1      16.172   4.856  11.226  0.00  0.00    +0.020 A 
ATOM      4  C14 UNL     1      15.941   6.221  11.149  0.00  0.00    +0.058 A 
ATOM      5  N2  UNL     1      16.343   6.631   9.888  0.00  0.00    -0.342 N 
ENDROOT
BRANCH   4   6
ATOM      6  C15 UNL     1      15.455   7.137  12.184  0.00  0.00    -0.001 A 
ATOM      7  C16 UNL     1      14.082   7.247  12.446  0.00  0.00    +0.013 A 
ATOM      8  C17 UNL     1      13.626   8.117  13.437  0.00  0.00    +0.039 A 
ATOM      9  C18 UNL     1      14.543   8.868  14.165  0.00  0.00    +0.123 A 
ATOM     10  F1  UNL     1      14.102   9.702  15.116  0.00  0.00    -0.205 F 
ATOM     11  C19 UNL     1      15.908   8.762  13.925  0.00  0.00    +0.039 A 
ATOM     12  C20 UNL     1      16.366   7.894  12.933  0.00  0.00    +0.013 A 
ENDBRANCH   4   6
BRANCH   3  13
ATOM     13  C28 UNL     1      15.961   4.077  12.440  0.00  0.00    -0.015 A 
ATOM     14  C29 UNL     1      16.940   4.071  13.443  0.00  0.00    +0.011 A 
ATOM     15  C30 UNL     1      16.760   3.304  14.595  0.00  0.00    +0.039 A 
ATOM     16  C31 UNL     1      15.604   2.546  14.740  0.00  0.00    +0.123 A 
ATOM     17  F2  UNL     1      15.431   1.809  15.845  0.00  0.00    -0.205 F 
ATOM     18  C32 UNL     1      14.624   2.537  13.753  0.00  0.00    +0.039 A 
ATOM     19  C33 UNL     1      14.803   3.302  12.599  0.00  0.00    +0.011 A 
ENDBRANCH   3  13
BRANCH   2  20
ATOM     20  C6  UNL     1      17.129   3.053   9.618  0.00  0.00    +0.251 C 
ATOM     21  O1  UNL     1      18.301   2.705   9.694  0.00  0.00    -0.270 OA
ATOM     22  N1  UNL     1      16.072   2.263   9.209  0.00  0.00    -0.281 N 
ATOM     23  H8  UNL     1      15.167   2.715   9.191  0.00  0.00    +0.155 HD
BRANCH  22  24
ATOM     24  C7  UNL     1      16.095   0.906   8.835  0.00  0.00    +0.034 A 
ATOM     25  C8  UNL     1      15.725   0.604   7.517  0.00  0.00    +0.023 A 
ATOM     26  C9  UNL     1      15.717  -0.718   7.064  0.00  0.00    +0.002 A 
ATOM     27  C10 UNL     1      16.079  -1.750   7.925  0.00  0.00    +0.000 A 
ATOM     28  C11 UNL     1      16.447  -1.459   9.236  0.00  0.00    +0.002 A 
ATOM     29  C12 UNL     1      16.454  -0.136   9.691  0.00  0.00    +0.023 A 
ENDBRANCH  22  24
ENDBRANCH   2  20
BRANCH   1  31
ATOM     30  C1  UNL     1      16.411   4.861   6.724  0.00  0.00    +0.014 C 
ATOM     31  C2  UNL     1      17.248   5.686   7.702  0.00  0.00    +0.030 C 
ATOM     32  C3  UNL     1      18.742   5.395   7.557  0.00  0.00    +0.014 C 
ENDBRANCH   1  31
BRANCH   5  33
ATOM     33  C21 UNL     1      16.354   8.023   9.439  0.00  0.00    +0.124 C 
BRANCH  33  34
ATOM     34  C22 UNL     1      15.226   8.323   8.447  0.00  0.00    +0.053 C 
BRANCH  34  35
ATOM     35  C23 UNL     1      14.212   9.304   9.039  0.00  0.00    +0.119 C 
BRANCH  35  36
ATOM     36  O2  UNL     1      13.084   8.578   9.502  0.00  0.00    -0.392 OA
ATOM     37  H23 UNL     1      13.258   7.627   9.385  0.00  0.00    +0.210 HD
ENDBRANCH  35  36
BRANCH  35  38
ATOM     38  C24 UNL     1      14.795  10.167  10.161  0.00  0.00    +0.063 C 
BRANCH  38  39
ATOM     39  C25 UNL     1      14.014  11.433  10.558  0.00  0.00    +0.128 C 
BRANCH  39  40
ATOM     40  O3  UNL     1      13.114  11.714   9.469  0.00  0.00    -0.391 OA
ATOM     41  H27 UNL     1      12.982  12.678   9.435  0.00  0.00    +0.210 HD
ENDBRANCH  39  40
BRANCH  39  42
ATOM     42  C26 UNL     1      13.146  11.286  11.810  0.00  0.00    +0.151 C 
BRANCH  42  43
ATOM     43  C27 UNL     1      11.681  11.071  11.561  0.00  0.00    +0.307 C 
ATOM     44  O4  UNL     1      11.180  10.034  11.152  0.00  0.00    -0.251 OA
BRANCH  43  45
ATOM     45  O5  UNL     1      10.919  12.170  11.714  0.00  0.00    -0.481 OA
ATOM     46  H30 UNL     1      11.539  12.819  12.110  0.00  0.00    +0.295 HD
ENDBRANCH  43  45
ENDBRANCH  42  43
ENDBRANCH  39  42
ENDBRANCH  38  39
ENDBRANCH  35  38
ENDBRANCH  34  35
ENDBRANCH  33  34
ENDBRANCH   5  33
TORSDOF 15
ENDMDL
MODEL 5
REMARK VINA RESULT:    -4.783      3.412      6.184
REMARK INTER + INTRA:         -12.729
REMARK INTER:                  -8.985
REMARK INTRA:                  -3.743
REMARK UNBOUND:                -4.171
REMARK  Name = data/mahkota_dewa_dn/results/docking/ligands/pdb/Atorvastatin.pdb
REMARK  17 active torsions:
REMARK  status: ('A' for Active; 'I' for Inactive)
REMARK    1  A    between atoms: C1_1  and  C2_2
REMARK    2  A    between atoms: C2_2  and  C3_3
REMARK    3  A    between atoms: C2_2  and  C4_4
REMARK    4  A    between atoms: C5_5  and  C6_6
REMARK    5  A    between atoms: N1_8  and  C7_9
REMARK    6  A    between atoms: C13_15  and  C28_36
REMARK    7  A    between atoms: C14_16  and  C15_17
REMARK    8  A    between atoms: N2_24  and  C21_25
REMARK    9  A    between atoms: C21_25  and  C22_26
REMARK   10  A    between atoms: C22_26  and  C23_27
REMARK   11  A    between atoms: C23_27  and  O2_28
REMARK   12  A    between atoms: C23_27  and  C24_29
REMARK   13  A    between atoms: C24_29  and  C25_30
REMARK   14  A    between atoms: C25_30  and  O3_31
REMARK   15  A    between atoms: C25_30  and  C26_32
REMARK   16  A    between atoms: C26_32  and  C27_33
REMARK   17  A    between atoms: C27_33  and  O5_35
REMARK                            x       y       z     vdW  Elec       q    Type
REMARK                         _______ _______ _______ _____ _____    ______ ____
ROOT
ATOM      1  C4  UNL     1      15.190   8.173  16.368  0.00  0.00    +0.035 A 
ATOM      2  C5  UNL     1      14.503   9.075  15.551  0.00  0.00    +0.066 A 
ATOM      3  C13 UNL     1      14.541   8.547  14.216  0.00  0.00    +0.020 A 
ATOM      4  C14 UNL     1      15.252   7.356  14.241  0.00  0.00    +0.058 A 
ATOM      5  N2  UNL     1      15.663   7.155  15.549  0.00  0.00    -0.342 N 
ENDROOT
BRANCH   4   6
ATOM      6  C15 UNL     1      15.618   6.474  13.130  0.00  0.00    -0.001 A 
ATOM      7  C16 UNL     1      16.796   6.697  12.405  0.00  0.00    +0.013 A 
ATOM      8  C17 UNL     1      17.142   5.850  11.352  0.00  0.00    +0.039 A 
ATOM      9  C18 UNL     1      16.311   4.781  11.031  0.00  0.00    +0.123 A 
ATOM     10  F1  UNL     1      16.645   3.970  10.019  0.00  0.00    -0.205 F 
ATOM     11  C19 UNL     1      15.144   4.541  11.746  0.00  0.00    +0.039 A 
ATOM     12  C20 UNL     1      14.796   5.388  12.799  0.00  0.00    +0.013 A 
ENDBRANCH   4   6
BRANCH   3  13
ATOM     13  C28 UNL     1      14.025   9.144  12.991  0.00  0.00    -0.015 A 
ATOM     14  C29 UNL     1      12.878   8.612  12.386  0.00  0.00    +0.011 A 
ATOM     15  C30 UNL     1      12.395   9.159  11.195  0.00  0.00    +0.039 A 
ATOM     16  C31 UNL     1      13.060  10.233  10.615  0.00  0.00    +0.123 A 
ATOM     17  F2  UNL     1      12.597  10.757   9.473  0.00  0.00    -0.205 F 
ATOM     18  C32 UNL     1      14.201  10.771  11.200  0.00  0.00    +0.039 A 
ATOM     19  C33 UNL     1      14.687  10.224  12.389  0.00  0.00    +0.011 A 
ENDBRANCH   3  13
BRANCH   2  20
ATOM     20  C6  UNL     1      13.875  10.335  15.979  0.00  0.00    +0.251 C 
ATOM     21  O1  UNL     1      12.657  10.451  16.042  0.00  0.00    -0.270 OA
ATOM     22  N1  UNL     1      14.801  11.315  16.280  0.00  0.00    -0.281 N 
ATOM     23  H8  UNL     1      15.771  11.056  16.158  0.00  0.00    +0.155 HD
BRANCH  22  24
ATOM     24  C7  UNL     1      14.563  12.621  16.750  0.00  0.00    +0.034 A 
ATOM     25  C8  UNL     1      13.687  12.756  17.836  0.00  0.00    +0.023 A 
ATOM     26  C9  UNL     1      13.394  14.016  18.363  0.00  0.00    +0.002 A 
ATOM     27  C10 UNL     1      13.974  15.154  17.810  0.00  0.00    +0.000 A 
ATOM     28  C11 UNL     1      14.846  15.029  16.731  0.00  0.00    +0.002 A 
ATOM     29  C12 UNL     1      15.140  13.768  16.202  0.00  0.00    +0.023 A 
ENDBRANCH  22  24
ENDBRANCH   2  20
BRANCH   1  31
ATOM     30  C1  UNL     1      14.202   8.542  18.680  0.00  0.00    +0.014 C 
ATOM     31  C2  UNL     1      15.448   8.193  17.865  0.00  0.00    +0.030 C 
ATOM     32  C3  UNL     1      16.631   9.093  18.223  0.00  0.00    +0.014 C 
ENDBRANCH   1  31
BRANCH   5  33
ATOM     33  C21 UNL     1      16.526   6.056  15.981  0.00  0.00    +0.124 C 
BRANCH  33  34
ATOM     34  C22 UNL     1      15.726   4.837  16.449  0.00  0.00    +0.053 C 
BRANCH  34  35
ATOM     35  C23 UNL     1      16.422   3.532  16.057  0.00  0.00    +0.119 C 
BRANCH  35  36
ATOM     36  O2  UNL     1      17.142   3.737  14.851  0.00  0.00    -0.392 OA
ATOM     37  H23 UNL     1      17.521   2.885  14.569  0.00  0.00    +0.210 HD
ENDBRANCH  35  36
BRANCH  35  38
ATOM     38  C24 UNL     1      17.346   2.991  17.150  0.00  0.00    +0.063 C 
BRANCH  38  39
ATOM     39  C25 UNL     1      17.276   1.483  17.454  0.00  0.00    +0.128 C 
BRANCH  39  40
ATOM     40  O3  UNL     1      15.966   1.046  17.046  0.00  0.00    -0.391 OA
ATOM     41  H27 UNL     1      15.329   1.354  17.714  0.00  0.00    +0.210 HD
ENDBRANCH  39  40
BRANCH  39  42
ATOM     42  C26 UNL     1      18.279   0.625  16.680  0.00  0.00    +0.151 C 
BRANCH  42  43
ATOM     43  C27 UNL     1      17.792   0.086  15.365  0.00  0.00    +0.307 C 
ATOM     44  O4  UNL     1      17.637   0.745  14.347  0.00  0.00    -0.251 OA
BRANCH  43  45
ATOM     45  O5  UNL     1      17.410  -1.203  15.395  0.00  0.00    -0.481 OA
ATOM     46  H30 UNL     1      17.490  -1.482  14.458  0.00  0.00    +0.295 HD
ENDBRANCH  43  45
ENDBRANCH  42  43
ENDBRANCH  39  42
ENDBRANCH  38  39
ENDBRANCH  35  38
ENDBRANCH  34  35
ENDBRANCH  33  34
ENDBRANCH   5  33
TORSDOF 15
ENDMDL
MODEL 6
REMARK VINA RESULT:    -4.768      2.679      7.033
REMARK INTER + INTRA:         -12.701
REMARK INTER:                  -7.609
REMARK INTRA:                  -5.092
REMARK UNBOUND:                -4.171
REMARK  Name = data/mahkota_dewa_dn/results/docking/ligands/pdb/Atorvastatin.pdb
REMARK  17 active torsions:
REMARK  status: ('A' for Active; 'I' for Inactive)
REMARK    1  A    between atoms: C1_1  and  C2_2
REMARK    2  A    between atoms: C2_2  and  C3_3
REMARK    3  A    between atoms: C2_2  and  C4_4
REMARK    4  A    between atoms: C5_5  and  C6_6
REMARK    5  A    between atoms: N1_8  and  C7_9
REMARK    6  A    between atoms: C13_15  and  C28_36
REMARK    7  A    between atoms: C14_16  and  C15_17
REMARK    8  A    between atoms: N2_24  and  C21_25
REMARK    9  A    between atoms: C21_25  and  C22_26
REMARK   10  A    between atoms: C22_26  and  C23_27
REMARK   11  A    between atoms: C23_27  and  O2_28
REMARK   12  A    between atoms: C23_27  and  C24_29
REMARK   13  A    between atoms: C24_29  and  C25_30
REMARK   14  A    between atoms: C25_30  and  O3_31
REMARK   15  A    between atoms: C25_30  and  C26_32
REMARK   16  A    between atoms: C26_32  and  C27_33
REMARK   17  A    between atoms: C27_33  and  O5_35
REMARK                            x       y       z     vdW  Elec       q    Type
REMARK                         _______ _______ _______ _____ _____    ______ ____
ROOT
ATOM      1  C4  UNL     1      18.420   5.491  14.084  0.00  0.00    +0.035 A 
ATOM      2  C5  UNL     1      18.186   6.119  15.311  0.00  0.00    +0.066 A 
ATOM      3  C13 UNL     1      16.965   6.862  15.177  0.00  0.00    +0.020 A 
ATOM      4  C14 UNL     1      16.489   6.687  13.886  0.00  0.00    +0.058 A 
ATOM      5  N2  UNL     1      17.396   5.874  13.225  0.00  0.00    -0.342 N 
ENDROOT
BRANCH   4   6
ATOM      6  C15 UNL     1      15.316   7.284  13.243  0.00  0.00    -0.001 A 
ATOM      7  C16 UNL     1      15.440   8.462  12.494  0.00  0.00    +0.013 A 
ATOM      8  C17 UNL     1      14.319   9.023  11.880  0.00  0.00    +0.039 A 
ATOM      9  C18 UNL     1      13.082   8.401  12.013  0.00  0.00    +0.123 A 
ATOM     10  F1  UNL     1      12.008   8.941  11.422  0.00  0.00    -0.205 F 
ATOM     11  C19 UNL     1      12.944   7.227  12.744  0.00  0.00    +0.039 A 
ATOM     12  C20 UNL     1      14.064   6.666  13.360  0.00  0.00    +0.013 A 
ENDBRANCH   4   6
BRANCH   3  13
ATOM     13  C28 UNL     1      16.326   7.738  16.151  0.00  0.00    -0.015 A 
ATOM     14  C29 UNL     1      15.526   7.189  17.163  0.00  0.00    +0.011 A 
ATOM     15  C30 UNL     1      14.886   8.023  18.082  0.00  0.00    +0.039 A 
ATOM     16  C31 UNL     1      15.048   9.400  17.986  0.00  0.00    +0.123 A 
ATOM     17  F2  UNL     1      14.434  10.200  18.867  0.00  0.00    -0.205 F 
ATOM     18  C32 UNL     1      15.836   9.961  16.987  0.00  0.00    +0.039 A 
ATOM     19  C33 UNL     1      16.475   9.130  16.065  0.00  0.00    +0.011 A 
ENDBRANCH   3  13
BRANCH   2  20
ATOM     20  C6  UNL     1      19.042   6.043  16.505  0.00  0.00    +0.251 C 
ATOM     21  O1  UNL     1      20.065   6.711  16.598  0.00  0.00    -0.270 OA
ATOM     22  N1  UNL     1      18.560   5.158  17.450  0.00  0.00    -0.281 N 
ATOM     23  H8  UNL     1      17.706   4.675  17.204  0.00  0.00    +0.155 HD
BRANCH  22  24
ATOM     24  C7  UNL     1      19.098   4.860  18.716  0.00  0.00    +0.034 A 
ATOM     25  C8  UNL     1      20.003   3.792  18.788  0.00  0.00    +0.023 A 
ATOM     26  C9  UNL     1      20.581   3.428  20.006  0.00  0.00    +0.002 A 
ATOM     27  C10 UNL     1      20.261   4.129  21.166  0.00  0.00    +0.000 A 
ATOM     28  C11 UNL     1      19.364   5.192  21.104  0.00  0.00    +0.002 A 
ATOM     29  C12 UNL     1      18.783   5.557  19.884  0.00  0.00    +0.023 A 
ENDBRANCH  22  24
ENDBRANCH   2  20
BRANCH   1  31
ATOM     30  C1  UNL     1      19.644   3.306  14.516  0.00  0.00    +0.014 C 
ATOM     31  C2  UNL     1      19.538   4.560  13.646  0.00  0.00    +0.030 C 
ATOM     32  C3  UNL     1      20.875   5.292  13.541  0.00  0.00    +0.014 C 
ENDBRANCH   1  31
BRANCH   5  33
ATOM     33  C21 UNL     1      17.311   5.527  11.807  0.00  0.00    +0.124 C 
BRANCH  33  34
ATOM     34  C22 UNL     1      16.121   4.613  11.502  0.00  0.00    +0.053 C 
BRANCH  34  35
ATOM     35  C23 UNL     1      16.500   3.139  11.654  0.00  0.00    +0.119 C 
BRANCH  35  36
ATOM     36  O2  UNL     1      17.863   2.973  11.293  0.00  0.00    -0.392 OA
ATOM     37  H23 UNL     1      17.901   2.517  10.433  0.00  0.00    +0.210 HD
ENDBRANCH  35  36
BRANCH  35  38
ATOM     38  C24 UNL     1      16.246   2.594  13.062  0.00  0.00    +0.063 C 
BRANCH  38  39
ATOM     39  C25 UNL     1      14.984   3.087  13.793  0.00  0.00    +0.128 C 
BRANCH  39  40
ATOM     40  O3  UNL     1      14.091   1.960  13.869  0.00  0.00    -0.391 OA
ATOM     41  H27 UNL     1      13.237   2.280  14.208  0.00  0.00    +0.210 HD
ENDBRANCH  39  40
BRANCH  39  42
ATOM     42  C26 UNL     1      15.216   3.553  15.233  0.00  0.00    +0.151 C 
BRANCH  42  43
ATOM     43  C27 UNL     1      15.911   2.567  16.128  0.00  0.00    +0.307 C 
ATOM     44  O4  UNL     1      17.006   2.734  16.645  0.00  0.00    -0.251 OA
BRANCH  43  45
ATOM     45  O5  UNL     1      15.284   1.384  16.251  0.00  0.00    -0.481 OA
ATOM     46  H30 UNL     1      15.302   1.025  15.338  0.00  0.00    +0.295 HD
ENDBRANCH  43  45
ENDBRANCH  42  43
ENDBRANCH  39  42
ENDBRANCH  38  39
ENDBRANCH  35  38
ENDBRANCH  34  35
ENDBRANCH  33  34
ENDBRANCH   5  33
TORSDOF 15
ENDMDL
MODEL 7
REMARK VINA RESULT:    -4.633      1.504      2.174
REMARK INTER + INTRA:         -12.460
REMARK INTER:                  -8.081
REMARK INTRA:                  -4.379
REMARK UNBOUND:                -4.171
REMARK  Name = data/mahkota_dewa_dn/results/docking/ligands/pdb/Atorvastatin.pdb
REMARK  17 active torsions:
REMARK  status: ('A' for Active; 'I' for Inactive)
REMARK    1  A    between atoms: C1_1  and  C2_2
REMARK    2  A    between atoms: C2_2  and  C3_3
REMARK    3  A    between atoms: C2_2  and  C4_4
REMARK    4  A    between atoms: C5_5  and  C6_6
REMARK    5  A    between atoms: N1_8  and  C7_9
REMARK    6  A    between atoms: C13_15  and  C28_36
REMARK    7  A    between atoms: C14_16  and  C15_17
REMARK    8  A    between atoms: N2_24  and  C21_25
REMARK    9  A    between atoms: C21_25  and  C22_26
REMARK   10  A    between atoms: C22_26  and  C23_27
REMARK   11  A    between atoms: C23_27  and  O2_28
REMARK   12  A    between atoms: C23_27  and  C24_29
REMARK   13  A    between atoms: C24_29  and  C25_30
REMARK   14  A    between atoms: C25_30  and  O3_31
REMARK   15  A    between atoms: C25_30  and  C26_32
REMARK   16  A    between atoms: C26_32  and  C27_33
REMARK   17  A    between atoms: C27_33  and  O5_35
REMARK                            x       y       z     vdW  Elec       q    Type
REMARK                         _______ _______ _______ _____ _____    ______ ____
ROOT
ATOM      1  C4  UNL     1      16.322   6.138  13.424  0.00  0.00    +0.035 A 
ATOM      2  C5  UNL     1      16.029   7.437  13.850  0.00  0.00    +0.066 A 
ATOM      3  C13 UNL     1      16.469   7.543  15.212  0.00  0.00    +0.020 A 
ATOM      4  C14 UNL     1      17.003   6.320  15.592  0.00  0.00    +0.058 A 
ATOM      5  N2  UNL     1      16.883   5.469  14.505  0.00  0.00    -0.342 N 
ENDROOT
BRANCH   4   6
ATOM      6  C15 UNL     1      17.526   5.904  16.896  0.00  0.00    -0.001 A 
ATOM      7  C16 UNL     1      18.908   5.817  17.110  0.00  0.00    +0.013 A 
ATOM      8  C17 UNL     1      19.401   5.426  18.355  0.00  0.00    +0.039 A 
ATOM      9  C18 UNL     1      18.511   5.129  19.382  0.00  0.00    +0.123 A 
ATOM     10  F1  UNL     1      18.986   4.753  20.576  0.00  0.00    -0.205 F 
ATOM     11  C19 UNL     1      17.138   5.220  19.188  0.00  0.00    +0.039 A 
ATOM     12  C20 UNL     1      16.643   5.610  17.943  0.00  0.00    +0.013 A 
ENDBRANCH   4   6
BRANCH   3  13
ATOM     13  C28 UNL     1      16.330   8.672  16.124  0.00  0.00    -0.015 A 
ATOM     14  C29 UNL     1      17.416   9.531  16.338  0.00  0.00    +0.011 A 
ATOM     15  C30 UNL     1      17.301  10.597  17.233  0.00  0.00    +0.039 A 
ATOM     16  C31 UNL     1      16.104  10.798  17.909  0.00  0.00    +0.123 A 
ATOM     17  F2  UNL     1      15.994  11.820  18.768  0.00  0.00    -0.205 F 
ATOM     18  C32 UNL     1      15.018   9.953  17.710  0.00  0.00    +0.039 A 
ATOM     19  C33 UNL     1      15.131   8.885  16.818  0.00  0.00    +0.011 A 
ENDBRANCH   3  13
BRANCH   2  20
ATOM     20  C6  UNL     1      15.377   8.488  13.053  0.00  0.00    +0.251 C 
ATOM     21  O1  UNL     1      16.025   9.391  12.538  0.00  0.00    -0.270 OA
ATOM     22  N1  UNL     1      14.008   8.325  12.976  0.00  0.00    -0.281 N 
ATOM     23  H8  UNL     1      13.631   7.530  13.474  0.00  0.00    +0.155 HD
BRANCH  22  24
ATOM     24  C7  UNL     1      13.076   9.115  12.275  0.00  0.00    +0.034 A 
ATOM     25  C8  UNL     1      12.423   8.515  11.189  0.00  0.00    +0.023 A 
ATOM     26  C9  UNL     1      11.486   9.229  10.438  0.00  0.00    +0.002 A 
ATOM     27  C10 UNL     1      11.192  10.549  10.765  0.00  0.00    +0.000 A 
ATOM     28  C11 UNL     1      11.836  11.153  11.842  0.00  0.00    +0.002 A 
ATOM     29  C12 UNL     1      12.776  10.440  12.594  0.00  0.00    +0.023 A 
ENDBRANCH  22  24
ENDBRANCH   2  20
BRANCH   1  31
ATOM     30  C1  UNL     1      16.594   6.320  10.904  0.00  0.00    +0.014 C 
ATOM     31  C2  UNL     1      16.110   5.467  12.078  0.00  0.00    +0.030 C 
ATOM     32  C3  UNL     1      14.662   5.015  11.893  0.00  0.00    +0.014 C 
ENDBRANCH   1  31
BRANCH   5  33
ATOM     33  C21 UNL     1      17.241   4.051  14.526  0.00  0.00    +0.124 C 
BRANCH  33  34
ATOM     34  C22 UNL     1      16.029   3.149  14.779  0.00  0.00    +0.053 C 
BRANCH  34  35
ATOM     35  C23 UNL     1      16.092   2.511  16.168  0.00  0.00    +0.119 C 
BRANCH  35  36
ATOM     36  O2  UNL     1      15.240   1.376  16.194  0.00  0.00    -0.392 OA
ATOM     37  H23 UNL     1      15.510   0.771  15.480  0.00  0.00    +0.210 HD
ENDBRANCH  35  36
BRANCH  35  38
ATOM     38  C24 UNL     1      17.513   2.127  16.589  0.00  0.00    +0.063 C 
BRANCH  38  39
ATOM     39  C25 UNL     1      17.742   1.779  18.072  0.00  0.00    +0.128 C 
BRANCH  39  40
ATOM     40  O3  UNL     1      16.987   0.581  18.330  0.00  0.00    -0.391 OA
ATOM     41  H27 UNL     1      16.468   0.379  17.532  0.00  0.00    +0.210 HD
ENDBRANCH  39  40
BRANCH  39  42
ATOM     42  C26 UNL     1      19.194   1.464  18.441  0.00  0.00    +0.151 C 
BRANCH  42  43
ATOM     43  C27 UNL     1      19.416   0.995  19.850  0.00  0.00    +0.307 C 
ATOM     44  O4  UNL     1      18.942  -0.020  20.339  0.00  0.00    -0.251 OA
BRANCH  43  45
ATOM     45  O5  UNL     1      20.110   1.850  20.622  0.00  0.00    -0.481 OA
ATOM     46  H30 UNL     1      20.957   1.953  20.137  0.00  0.00    +0.295 HD
ENDBRANCH  43  45
ENDBRANCH  42  43
ENDBRANCH  39  42
ENDBRANCH  38  39
ENDBRANCH  35  38
ENDBRANCH  34  35
ENDBRANCH  33  34
ENDBRANCH   5  33
TORSDOF 15
ENDMDL
MODEL 8
REMARK VINA RESULT:    -4.564      3.939      6.677
REMARK INTER + INTRA:         -12.336
REMARK INTER:                  -8.316
REMARK INTRA:                  -4.020
REMARK UNBOUND:                -4.171
REMARK  Name = data/mahkota_dewa_dn/results/docking/ligands/pdb/Atorvastatin.pdb
REMARK  17 active torsions:
REMARK  status: ('A' for Active; 'I' for Inactive)
REMARK    1  A    between atoms: C1_1  and  C2_2
REMARK    2  A    between atoms: C2_2  and  C3_3
REMARK    3  A    between atoms: C2_2  and  C4_4
REMARK    4  A    between atoms: C5_5  and  C6_6
REMARK    5  A    between atoms: N1_8  and  C7_9
REMARK    6  A    between atoms: C13_15  and  C28_36
REMARK    7  A    between atoms: C14_16  and  C15_17
REMARK    8  A    between atoms: N2_24  and  C21_25
REMARK    9  A    between atoms: C21_25  and  C22_26
REMARK   10  A    between atoms: C22_26  and  C23_27
REMARK   11  A    between atoms: C23_27  and  O2_28
REMARK   12  A    between atoms: C23_27  and  C24_29
REMARK   13  A    between atoms: C24_29  and  C25_30
REMARK   14  A    between atoms: C25_30  and  O3_31
REMARK   15  A    between atoms: C25_30  and  C26_32
REMARK   16  A    between atoms: C26_32  and  C27_33
REMARK   17  A    between atoms: C27_33  and  O5_35
REMARK                            x       y       z     vdW  Elec       q    Type
REMARK                         _______ _______ _______ _____ _____    ______ ____
ROOT
ATOM      1  C4  UNL     1      14.844   6.821  12.461  0.00  0.00    +0.035 A 
ATOM      2  C5  UNL     1      15.531   7.000  11.257  0.00  0.00    +0.066 A 
ATOM      3  C13 UNL     1      16.105   5.732  10.908  0.00  0.00    +0.020 A 
ATOM      4  C14 UNL     1      15.774   4.818  11.898  0.00  0.00    +0.058 A 
ATOM      5  N2  UNL     1      15.031   5.500  12.848  0.00  0.00    -0.342 N 
ENDROOT
BRANCH   4   6
ATOM      6  C15 UNL     1      16.171   3.414  12.032  0.00  0.00    -0.001 A 
ATOM      7  C16 UNL     1      15.242   2.390  11.804  0.00  0.00    +0.013 A 
ATOM      8  C17 UNL     1      15.627   1.054  11.927  0.00  0.00    +0.039 A 
ATOM      9  C18 UNL     1      16.940   0.749  12.272  0.00  0.00    +0.123 A 
ATOM     10  F1  UNL     1      17.308  -0.534  12.390  0.00  0.00    -0.205 F 
ATOM     11  C19 UNL     1      17.876   1.753  12.491  0.00  0.00    +0.039 A 
ATOM     12  C20 UNL     1      17.492   3.089  12.369  0.00  0.00    +0.013 A 
ENDBRANCH   4   6
BRANCH   3  13
ATOM     13  C28 UNL     1      16.968   5.408   9.779  0.00  0.00    -0.015 A 
ATOM     14  C29 UNL     1      18.323   5.765   9.813  0.00  0.00    +0.011 A 
ATOM     15  C30 UNL     1      19.150   5.486   8.723  0.00  0.00    +0.039 A 
ATOM     16  C31 UNL     1      18.620   4.853   7.605  0.00  0.00    +0.123 A 
ATOM     17  F2  UNL     1      19.413   4.586   6.560  0.00  0.00    -0.205 F 
ATOM     18  C32 UNL     1      17.278   4.494   7.554  0.00  0.00    +0.039 A 
ATOM     19  C33 UNL     1      16.448   4.774   8.641  0.00  0.00    +0.011 A 
ENDBRANCH   3  13
BRANCH   2  20
ATOM     20  C6  UNL     1      15.653   8.257  10.503  0.00  0.00    +0.251 C 
ATOM     21  O1  UNL     1      16.450   9.125  10.836  0.00  0.00    -0.270 OA
ATOM     22  N1  UNL     1      14.787   8.319   9.428  0.00  0.00    -0.281 N 
ATOM     23  H8  UNL     1      14.183   7.518   9.304  0.00  0.00    +0.155 HD
BRANCH  22  24
ATOM     24  C7  UNL     1      14.655   9.348   8.476  0.00  0.00    +0.034 A 
ATOM     25  C8  UNL     1      14.954   9.026   7.145  0.00  0.00    +0.023 A 
ATOM     26  C9  UNL     1      14.851   9.988   6.138  0.00  0.00    +0.002 A 
ATOM     27  C10 UNL     1      14.450  11.284   6.451  0.00  0.00    +0.000 A 
ATOM     28  C11 UNL     1      14.151  11.613   7.771  0.00  0.00    +0.002 A 
ATOM     29  C12 UNL     1      14.254  10.650   8.781  0.00  0.00    +0.023 A 
ENDBRANCH  22  24
ENDBRANCH   2  20
BRANCH   1  31
ATOM     30  C1  UNL     1      13.040   8.611  12.448  0.00  0.00    +0.014 C 
ATOM     31  C2  UNL     1      14.026   7.799  13.288  0.00  0.00    +0.030 C 
ATOM     32  C3  UNL     1      14.918   8.699  14.145  0.00  0.00    +0.014 C 
ENDBRANCH   1  31
BRANCH   5  33
ATOM     33  C21 UNL     1      14.568   4.916  14.107  0.00  0.00    +0.124 C 
BRANCH  33  34
ATOM     34  C22 UNL     1      15.598   5.066  15.231  0.00  0.00    +0.053 C 
BRANCH  34  35
ATOM     35  C23 UNL     1      15.633   3.822  16.121  0.00  0.00    +0.119 C 
BRANCH  35  36
ATOM     36  O2  UNL     1      14.370   3.176  16.063  0.00  0.00    -0.392 OA
ATOM     37  H23 UNL     1      13.990   3.320  15.178  0.00  0.00    +0.210 HD
ENDBRANCH  35  36
BRANCH  35  38
ATOM     38  C24 UNL     1      16.753   2.847  15.749  0.00  0.00    +0.063 C 
BRANCH  38  39
ATOM     39  C25 UNL     1      17.306   1.944  16.867  0.00  0.00    +0.128 C 
BRANCH  39  40
ATOM     40  O3  UNL     1      16.208   1.124  17.308  0.00  0.00    -0.391 OA
ATOM     41  H27 UNL     1      16.436   0.769  18.185  0.00  0.00    +0.210 HD
ENDBRANCH  39  40
BRANCH  39  42
ATOM     42  C26 UNL     1      18.414   0.984  16.429  0.00  0.00    +0.151 C 
BRANCH  42  43
ATOM     43  C27 UNL     1      18.104  -0.477  16.585  0.00  0.00    +0.307 C 
ATOM     44  O4  UNL     1      18.450  -1.175  17.527  0.00  0.00    -0.251 OA
BRANCH  43  45
ATOM     45  O5  UNL     1      17.487  -1.035  15.528  0.00  0.00    -0.481 OA
ATOM     46  H30 UNL     1      18.120  -1.727  15.238  0.00  0.00    +0.295 HD
ENDBRANCH  43  45
ENDBRANCH  42  43
ENDBRANCH  39  42
ENDBRANCH  38  39
ENDBRANCH  35  38
ENDBRANCH  34  35
ENDBRANCH  33  34
ENDBRANCH   5  33
TORSDOF 15
ENDMDL
MODEL 9
REMARK VINA RESULT:    -4.544      2.627      9.352
REMARK INTER + INTRA:         -12.301
REMARK INTER:                  -8.202
REMARK INTRA:                  -4.099
REMARK UNBOUND:                -4.171
REMARK  Name = data/mahkota_dewa_dn/results/docking/ligands/pdb/Atorvastatin.pdb
REMARK  17 active torsions:
REMARK  status: ('A' for Active; 'I' for Inactive)
REMARK    1  A    between atoms: C1_1  and  C2_2
REMARK    2  A    between atoms: C2_2  and  C3_3
REMARK    3  A    between atoms: C2_2  and  C4_4
REMARK    4  A    between atoms: C5_5  and  C6_6
REMARK    5  A    between atoms: N1_8  and  C7_9
REMARK    6  A    between atoms: C13_15  and  C28_36
REMARK    7  A    between atoms: C14_16  and  C15_17
REMARK    8  A    between atoms: N2_24  and  C21_25
REMARK    9  A    between atoms: C21_25  and  C22_26
REMARK   10  A    between atoms: C22_26  and  C23_27
REMARK   11  A    between atoms: C23_27  and  O2_28
REMARK   12  A    between atoms: C23_27  and  C24_29
REMARK   13  A    between atoms: C24_29  and  C25_30
REMARK   14  A    between atoms: C25_30  and  O3_31
REMARK   15  A    between atoms: C25_30  and  C26_32
REMARK   16  A    between atoms: C26_32  and  C27_33
REMARK   17  A    between atoms: C27_33  and  O5_35
REMARK                            x       y       z     vdW  Elec       q    Type
REMARK                         _______ _______ _______ _____ _____    ______ ____
ROOT
ATOM      1  C4  UNL     1      18.446   1.445  18.200  0.00  0.00    +0.035 A 
ATOM      2  C5  UNL     1      19.385   2.054  19.038  0.00  0.00    +0.066 A 
ATOM      3  C13 UNL     1      19.123   3.465  19.008  0.00  0.00    +0.020 A 
ATOM      4  C14 UNL     1      18.054   3.690  18.154  0.00  0.00    +0.058 A 
ATOM      5  N2  UNL     1      17.669   2.458  17.650  0.00  0.00    -0.342 N 
ENDROOT
BRANCH   4   6
ATOM      6  C15 UNL     1      17.449   4.960  17.743  0.00  0.00    -0.001 A 
ATOM      7  C16 UNL     1      16.351   5.481  18.440  0.00  0.00    +0.013 A 
ATOM      8  C17 UNL     1      15.783   6.694  18.048  0.00  0.00    +0.039 A 
ATOM      9  C18 UNL     1      16.319   7.383  16.964  0.00  0.00    +0.123 A 
ATOM     10  F1  UNL     1      15.772   8.546  16.589  0.00  0.00    -0.205 F 
ATOM     11  C19 UNL     1      17.414   6.884  16.269  0.00  0.00    +0.039 A 
ATOM     12  C20 UNL     1      17.983   5.671  16.659  0.00  0.00    +0.013 A 
ENDBRANCH   4   6
BRANCH   3  13
ATOM     13  C28 UNL     1      19.864   4.537  19.660  0.00  0.00    -0.015 A 
ATOM     14  C29 UNL     1      19.433   5.027  20.901  0.00  0.00    +0.011 A 
ATOM     15  C30 UNL     1      20.119   6.075  21.518  0.00  0.00    +0.039 A 
ATOM     16  C31 UNL     1      21.231   6.628  20.894  0.00  0.00    +0.123 A 
ATOM     17  F2  UNL     1      21.887   7.634  21.486  0.00  0.00    -0.205 F 
ATOM     18  C32 UNL     1      21.670   6.157  19.662  0.00  0.00    +0.039 A 
ATOM     19  C33 UNL     1      20.984   5.111  19.041  0.00  0.00    +0.011 A 
ENDBRANCH   3  13
BRANCH   2  20
ATOM     20  C6  UNL     1      20.448   1.373  19.793  0.00  0.00    +0.251 C 
ATOM     21  O1  UNL     1      21.533   1.124  19.281  0.00  0.00    -0.270 OA
ATOM     22  N1  UNL     1      20.071   1.067  21.086  0.00  0.00    -0.281 N 
ATOM     23  H8  UNL     1      19.129   1.331  21.343  0.00  0.00    +0.155 HD
BRANCH  22  24
ATOM     24  C7  UNL     1      20.838   0.452  22.093  0.00  0.00    +0.034 A 
ATOM     25  C8  UNL     1      20.691  -0.934  22.249  0.00  0.00    +0.023 A 
ATOM     26  C9  UNL     1      21.413  -1.622  23.226  0.00  0.00    +0.002 A 
ATOM     27  C10 UNL     1      22.290  -0.933  24.059  0.00  0.00    +0.000 A 
ATOM     28  C11 UNL     1      22.442   0.444  23.912  0.00  0.00    +0.002 A 
ATOM     29  C12 UNL     1      21.719   1.135  22.934  0.00  0.00    +0.023 A 
ENDBRANCH  22  24
ENDBRANCH   2  20
BRANCH   1  31
ATOM     30  C1  UNL     1      17.958  -0.881  19.101  0.00  0.00    +0.014 C 
ATOM     31  C2  UNL     1      18.222  -0.020  17.865  0.00  0.00    +0.030 C 
ATOM     32  C3  UNL     1      19.357  -0.585  17.011  0.00  0.00    +0.014 C 
ENDBRANCH   1  31
BRANCH   5  33
ATOM     33  C21 UNL     1      16.634   2.270  16.634  0.00  0.00    +0.124 C 
BRANCH  33  34
ATOM     34  C22 UNL     1      17.205   2.278  15.213  0.00  0.00    +0.053 C 
BRANCH  34  35
ATOM     35  C23 UNL     1      16.136   2.662  14.188  0.00  0.00    +0.119 C 
BRANCH  35  36
ATOM     36  O2  UNL     1      14.913   2.030  14.535  0.00  0.00    -0.392 OA
ATOM     37  H23 UNL     1      14.949   1.103  14.237  0.00  0.00    +0.210 HD
ENDBRANCH  35  36
BRANCH  35  38
ATOM     38  C24 UNL     1      15.941   4.175  14.060  0.00  0.00    +0.063 C 
BRANCH  38  39
ATOM     39  C25 UNL     1      14.660   4.667  13.361  0.00  0.00    +0.128 C 
BRANCH  39  40
ATOM     40  O3  UNL     1      13.693   4.901  14.402  0.00  0.00    -0.391 OA
ATOM     41  H27 UNL     1      13.392   5.823  14.325  0.00  0.00    +0.210 HD
ENDBRANCH  39  40
BRANCH  39  42
ATOM     42  C26 UNL     1      14.809   5.989  12.604  0.00  0.00    +0.151 C 
BRANCH  42  43
ATOM     43  C27 UNL     1      13.670   6.956  12.759  0.00  0.00    +0.307 C 
ATOM     44  O4  UNL     1      13.631   7.876  13.562  0.00  0.00    -0.251 OA
BRANCH  43  45
ATOM     45  O5  UNL     1      12.591   6.677  12.005  0.00  0.00    -0.481 OA
ATOM     46  H30 UNL     1      12.954   6.098  11.300  0.00  0.00    +0.295 HD
ENDBRANCH  43  45
ENDBRANCH  42  43
ENDBRANCH  39  42
ENDBRANCH  38  39
ENDBRANCH  35  38
ENDBRANCH  34  35
ENDBRANCH  33  34
ENDBRANCH   5  33
TORSDOF 15
ENDMDL
