MODEL 1
REMARK VINA RESULT:    -4.055      0.000      0.000
REMARK INTER + INTRA:          -4.816
REMARK INTER:                  -4.766
REMARK INTRA:                  -0.050
REMARK UNBOUND:                -0.050
REMARK  Name = data/mahkota_dewa_dn/results/docking/ligands/pdb/Gallic_acid.pdb
REMARK  5 active torsions:
REMARK  status: ('A' for Active; 'I' for Inactive)
REMARK    1  A    between atoms: C2_2  and  C7_10
REMARK    2  A    between atoms: C4_4  and  O3_9
REMARK    3  A    between atoms: C5_5  and  O2_8
REMARK    4  A    between atoms: C6_6  and  O1_7
REMARK    5  A    between atoms: C7_10  and  O5_12
REMARK                            x       y       z     vdW  Elec       q    Type
REMARK                         _______ _______ _______ _____ _____    ______ ____
ROOT
ATOM      1  C1  UNL     1      15.520   2.179  15.584  0.00  0.00    +0.064 A 
ATOM      2  C2  UNL     1      16.331   2.842  16.520  0.00  0.00    +0.066 A 
ATOM      3  C3  UNL     1      16.225   4.231  16.691  0.00  0.00    +0.064 A 
ATOM      4  C4  UNL     1      15.309   4.939  15.921  0.00  0.00    +0.163 A 
ATOM      5  C5  UNL     1      14.503   4.282  14.991  0.00  0.00    +0.201 A 
ATOM      6  C6  UNL     1      14.607   2.904  14.821  0.00  0.00    +0.163 A 
ENDROOT
BRANCH   6   7
ATOM      7  O1  UNL     1      13.812   2.275  13.906  0.00  0.00    -0.503 OA
ATOM      8  H3  UNL     1      13.011   2.800  13.757  0.00  0.00    +0.292 HD
ENDBRANCH   6   7
BRANCH   5   9
ATOM      9  O2  UNL     1      13.614   5.012  14.251  0.00  0.00    -0.501 OA
ATOM     10  H4  UNL     1      14.012   5.901  14.182  0.00  0.00    +0.292 HD
ENDBRANCH   5   9
BRANCH   4  11
ATOM     11  O3  UNL     1      15.163   6.294  16.044  0.00  0.00    -0.503 OA
ATOM     12  H5  UNL     1      15.995   6.722  15.777  0.00  0.00    +0.292 HD
ENDBRANCH   4  11
BRANCH   2  13
ATOM     13  C7  UNL     1      17.287   2.029  17.309  0.00  0.00    +0.337 C 
ATOM     14  O4  UNL     1      18.493   2.186  17.345  0.00  0.00    -0.245 OA
BRANCH  13  15
ATOM     15  O5  UNL     1      16.684   1.056  18.015  0.00  0.00    -0.477 OA
ATOM     16  H6  UNL     1      16.891   1.282  18.947  0.00  0.00    +0.295 HD
ENDBRANCH  13  15
ENDBRANCH   2  13
TORSDOF 5
ENDMDL
MODEL 2
REMARK VINA RESULT:    -3.946      0.089      2.392
REMARK INTER + INTRA:          -4.688
REMARK INTER:                  -4.639
REMARK INTRA:                  -0.049
REMARK UNBOUND:                -0.050
REMARK  Name = data/mahkota_dewa_dn/results/docking/ligands/pdb/Gallic_acid.pdb
REMARK  5 active torsions:
REMARK  status: ('A' for Active; 'I' for Inactive)
REMARK    1  A    between atoms: C2_2  and  C7_10
REMARK    2  A    between atoms: C4_4  and  O3_9
REMARK    3  A    between atoms: C5_5  and  O2_8
REMARK    4  A    between atoms: C6_6  and  O1_7
REMARK    5  A    between atoms: C7_10  and  O5_12
REMARK                            x       y       z     vdW  Elec       q    Type
REMARK                         _______ _______ _______ _____ _____    ______ ____
ROOT
ATOM      1  C1  UNL     1      16.251   4.160  16.728  0.00  0.00    +0.064 A 
ATOM      2  C2  UNL     1      16.372   2.776  16.518  0.00  0.00    +0.066 A 
ATOM      3  C3  UNL     1      15.580   2.134  15.554  0.00  0.00    +0.064 A 
ATOM      4  C4  UNL     1      14.674   2.886  14.814  0.00  0.00    +0.163 A 
ATOM      5  C5  UNL     1      14.552   4.260  15.021  0.00  0.00    +0.201 A 
ATOM      6  C6  UNL     1      15.339   4.898  15.977  0.00  0.00    +0.163 A 
ENDROOT
BRANCH   6   7
ATOM      7  O1  UNL     1      15.208   6.243  16.169  0.00  0.00    -0.503 OA
ATOM      8  H3  UNL     1      14.985   6.419  17.096  0.00  0.00    +0.292 HD
ENDBRANCH   6   7
BRANCH   5   9
ATOM      9  O2  UNL     1      13.651   4.966  14.273  0.00  0.00    -0.501 OA
ATOM     10  H4  UNL     1      14.189   5.604  13.766  0.00  0.00    +0.292 HD
ENDBRANCH   5   9
BRANCH   4  11
ATOM     11  O3  UNL     1      13.876   2.314  13.861  0.00  0.00    -0.503 OA
ATOM     12  H5  UNL     1      13.885   1.349  13.986  0.00  0.00    +0.292 HD
ENDBRANCH   4  11
BRANCH   2  13
ATOM     13  C7  UNL     1      17.355   2.033  17.341  0.00  0.00    +0.337 C 
ATOM     14  O4  UNL     1      18.552   2.248  17.385  0.00  0.00    -0.245 OA
BRANCH  13  15
ATOM     15  O5  UNL     1      16.791   1.054  18.071  0.00  0.00    -0.477 OA
ATOM     16  H6  UNL     1      17.559   0.561  18.433  0.00  0.00    +0.295 HD
ENDBRANCH  13  15
ENDBRANCH   2  13
TORSDOF 5
ENDMDL
MODEL 3
REMARK VINA RESULT:    -3.659      1.885      3.700
REMARK INTER + INTRA:          -4.351
REMARK INTER:                  -4.295
REMARK INTRA:                  -0.056
REMARK UNBOUND:                -0.050
REMARK  Name = data/mahkota_dewa_dn/results/docking/ligands/pdb/Gallic_acid.pdb
REMARK  5 active torsions:
REMARK  status: ('A' for Active; 'I' for Inactive)
REMARK    1  A    between atoms: C2_2  and  C7_10
REMARK    2  A    between atoms: C4_4  and  O3_9
REMARK    3  A    between atoms: C5_5  and  O2_8
REMARK    4  A    between atoms: C6_6  and  O1_7
REMARK    5  A    between atoms: C7_10  and  O5_12
REMARK                            x       y       z     vdW  Elec       q    Type
REMARK                         _______ _______ _______ _____ _____    ______ ____
ROOT
ATOM      1  C1  UNL     1      15.032   5.264  14.318  0.00  0.00    +0.064 A 
ATOM      2  C2  UNL     1      15.341   5.112  15.680  0.00  0.00    +0.066 A 
ATOM      3  C3  UNL     1      15.356   3.836  16.264  0.00  0.00    +0.064 A 
ATOM      4  C4  UNL     1      15.060   2.729  15.478  0.00  0.00    +0.163 A 
ATOM      5  C5  UNL     1      14.753   2.878  14.125  0.00  0.00    +0.201 A 
ATOM      6  C6  UNL     1      14.738   4.143  13.545  0.00  0.00    +0.163 A 
ENDROOT
BRANCH   6   7
ATOM      7  O1  UNL     1      14.435   4.274  12.219  0.00  0.00    -0.503 OA
ATOM      8  H3  UNL     1      15.035   4.917  11.811  0.00  0.00    +0.292 HD
ENDBRANCH   6   7
BRANCH   5   9
ATOM      9  O2  UNL     1      14.467   1.765  13.383  0.00  0.00    -0.501 OA
ATOM     10  H4  UNL     1      14.127   2.109  12.534  0.00  0.00    +0.292 HD
ENDBRANCH   5   9
BRANCH   4  11
ATOM     11  O3  UNL     1      15.059   1.461  15.994  0.00  0.00    -0.503 OA
ATOM     12  H5  UNL     1      15.319   1.506  16.930  0.00  0.00    +0.292 HD
ENDBRANCH   4  11
BRANCH   2  13
ATOM     13  C7  UNL     1      15.647   6.333  16.462  0.00  0.00    +0.337 C 
ATOM     14  O4  UNL     1      16.412   6.399  17.406  0.00  0.00    -0.245 OA
BRANCH  13  15
ATOM     15  O5  UNL     1      14.979   7.414  16.024  0.00  0.00    -0.477 OA
ATOM     16  H6  UNL     1      14.139   7.391  16.531  0.00  0.00    +0.295 HD
ENDBRANCH  13  15
ENDBRANCH   2  13
TORSDOF 5
ENDMDL
MODEL 4
REMARK VINA RESULT:    -3.636      1.608      2.734
REMARK INTER + INTRA:          -4.324
REMARK INTER:                  -4.277
REMARK INTRA:                  -0.047
REMARK UNBOUND:                -0.050
REMARK  Name = data/mahkota_dewa_dn/results/docking/ligands/pdb/Gallic_acid.pdb
REMARK  5 active torsions:
REMARK  status: ('A' for Active; 'I' for Inactive)
REMARK    1  A    between atoms: C2_2  and  C7_10
REMARK    2  A    between atoms: C4_4  and  O3_9
REMARK    3  A    between atoms: C5_5  and  O2_8
REMARK    4  A    between atoms: C6_6  and  O1_7
REMARK    5  A    between atoms: C7_10  and  O5_12
REMARK                            x       y       z     vdW  Elec       q    Type
REMARK                         _______ _______ _______ _____ _____    ______ ____
ROOT
ATOM      1  C1  UNL     1      16.752   3.134  16.650  0.00  0.00    +0.064 A 
ATOM      2  C2  UNL     1      16.520   4.520  16.659  0.00  0.00    +0.066 A 
ATOM      3  C3  UNL     1      15.452   5.064  15.928  0.00  0.00    +0.064 A 
ATOM      4  C4  UNL     1      14.632   4.213  15.197  0.00  0.00    +0.163 A 
ATOM      5  C5  UNL     1      14.861   2.837  15.186  0.00  0.00    +0.201 A 
ATOM      6  C6  UNL     1      15.920   2.297  15.911  0.00  0.00    +0.163 A 
ENDROOT
BRANCH   6   7
ATOM      7  O1  UNL     1      16.132   0.948  15.892  0.00  0.00    -0.503 OA
ATOM      8  H3  UNL     1      17.040   0.758  16.173  0.00  0.00    +0.292 HD
ENDBRANCH   6   7
BRANCH   5   9
ATOM      9  O2  UNL     1      14.032   2.031  14.455  0.00  0.00    -0.501 OA
ATOM     10  H4  UNL     1      13.257   1.879  15.030  0.00  0.00    +0.292 HD
ENDBRANCH   5   9
BRANCH   4  11
ATOM     11  O3  UNL     1      13.576   4.686  14.465  0.00  0.00    -0.503 OA
ATOM     12  H5  UNL     1      13.027   3.933  14.188  0.00  0.00    +0.292 HD
ENDBRANCH   4  11
BRANCH   2  13
ATOM     13  C7  UNL     1      17.432   5.371  17.459  0.00  0.00    +0.337 C 
ATOM     14  O4  UNL     1      18.590   5.627  17.184  0.00  0.00    -0.245 OA
BRANCH  13  15
ATOM     15  O5  UNL     1      16.849   5.862  18.567  0.00  0.00    -0.477 OA
ATOM     16  H6  UNL     1      16.973   6.833  18.485  0.00  0.00    +0.295 HD
ENDBRANCH  13  15
ENDBRANCH   2  13
TORSDOF 5
ENDMDL
MODEL 5
REMARK VINA RESULT:    -3.632      1.865      4.573
REMARK INTER + INTRA:          -4.318
REMARK INTER:                  -4.267
REMARK INTRA:                  -0.051
REMARK UNBOUND:                -0.050
REMARK  Name = data/mahkota_dewa_dn/results/docking/ligands/pdb/Gallic_acid.pdb
REMARK  5 active torsions:
REMARK  status: ('A' for Active; 'I' for Inactive)
REMARK    1  A    between atoms: C2_2  and  C7_10
REMARK    2  A    between atoms: C4_4  and  O3_9
REMARK    3  A    between atoms: C5_5  and  O2_8
REMARK    4  A    between atoms: C6_6  and  O1_7
REMARK    5  A    between atoms: C7_10  and  O5_12
REMARK                            x       y       z     vdW  Elec       q    Type
REMARK                         _______ _______ _______ _____ _____    ______ ____
ROOT
ATOM      1  C1  UNL     1      16.607   3.916  14.337  0.00  0.00    +0.064 A 
ATOM      2  C2  UNL     1      15.308   4.266  13.932  0.00  0.00    +0.066 A 
ATOM      3  C3  UNL     1      14.198   3.573  14.436  0.00  0.00    +0.064 A 
ATOM      4  C4  UNL     1      14.402   2.534  15.337  0.00  0.00    +0.163 A 
ATOM      5  C5  UNL     1      15.691   2.184  15.740  0.00  0.00    +0.201 A 
ATOM      6  C6  UNL     1      16.793   2.873  15.241  0.00  0.00    +0.163 A 
ENDROOT
BRANCH   6   7
ATOM      7  O1  UNL     1      18.049   2.519  15.645  0.00  0.00    -0.503 OA
ATOM      8  H3  UNL     1      18.661   3.253  15.483  0.00  0.00    +0.292 HD
ENDBRANCH   6   7
BRANCH   5   9
ATOM      9  O2  UNL     1      15.852   1.157  16.629  0.00  0.00    -0.501 OA
ATOM     10  H4  UNL     1      14.946   0.855  16.833  0.00  0.00    +0.292 HD
ENDBRANCH   5   9
BRANCH   4  11
ATOM     11  O3  UNL     1      13.357   1.822  15.861  0.00  0.00    -0.503 OA
ATOM     12  H5  UNL     1      13.198   2.127  16.771  0.00  0.00    +0.292 HD
ENDBRANCH   4  11
BRANCH   2  13
ATOM     13  C7  UNL     1      15.160   5.383  12.968  0.00  0.00    +0.337 C 
ATOM     14  O4  UNL     1      15.719   6.461  13.038  0.00  0.00    -0.245 OA
BRANCH  13  15
ATOM     15  O5  UNL     1      14.316   5.094  11.962  0.00  0.00    -0.477 OA
ATOM     16  H6  UNL     1      14.701   5.565  11.192  0.00  0.00    +0.295 HD
ENDBRANCH  13  15
ENDBRANCH   2  13
TORSDOF 5
ENDMDL
MODEL 6
REMARK VINA RESULT:    -3.630      1.863      4.350
REMARK INTER + INTRA:          -4.316
REMARK INTER:                  -4.265
REMARK INTRA:                  -0.051
REMARK UNBOUND:                -0.050
REMARK  Name = data/mahkota_dewa_dn/results/docking/ligands/pdb/Gallic_acid.pdb
REMARK  5 active torsions:
REMARK  status: ('A' for Active; 'I' for Inactive)
REMARK    1  A    between atoms: C2_2  and  C7_10
REMARK    2  A    between atoms: C4_4  and  O3_9
REMARK    3  A    between atoms: C5_5  and  O2_8
REMARK    4  A    between atoms: C6_6  and  O1_7
REMARK    5  A    between atoms: C7_10  and  O5_12
REMARK                            x       y       z     vdW  Elec       q    Type
REMARK                         _______ _______ _______ _____ _____    ______ ____
ROOT
ATOM      1  C1  UNL     1      14.192   3.594  14.438  0.00  0.00    +0.064 A 
ATOM      2  C2  UNL     1      15.301   4.290  13.929  0.00  0.00    +0.066 A 
ATOM      3  C3  UNL     1      16.602   3.923  14.305  0.00  0.00    +0.064 A 
ATOM      4  C4  UNL     1      16.777   2.863  15.188  0.00  0.00    +0.163 A 
ATOM      5  C5  UNL     1      15.677   2.170  15.695  0.00  0.00    +0.201 A 
ATOM      6  C6  UNL     1      14.386   2.534  15.322  0.00  0.00    +0.163 A 
ENDROOT
BRANCH   6   7
ATOM      7  O1  UNL     1      13.319   1.847  15.827  0.00  0.00    -0.503 OA
ATOM      8  H3  UNL     1      13.300   1.940  16.792  0.00  0.00    +0.292 HD
ENDBRANCH   6   7
BRANCH   5   9
ATOM      9  O2  UNL     1      15.888   1.133  16.561  0.00  0.00    -0.501 OA
ATOM     10  H4  UNL     1      16.559   0.574  16.126  0.00  0.00    +0.292 HD
ENDBRANCH   5   9
BRANCH   4  11
ATOM     11  O3  UNL     1      18.022   2.461  15.590  0.00  0.00    -0.503 OA
ATOM     12  H5  UNL     1      18.061   1.489  15.555  0.00  0.00    +0.292 HD
ENDBRANCH   4  11
BRANCH   2  13
ATOM     13  C7  UNL     1      15.046   5.410  12.992  0.00  0.00    +0.337 C 
ATOM     14  O4  UNL     1      15.485   6.540  13.099  0.00  0.00    -0.245 OA
BRANCH  13  15
ATOM     15  O5  UNL     1      14.251   5.060  11.966  0.00  0.00    -0.477 OA
ATOM     16  H6  UNL     1      14.309   4.081  11.949  0.00  0.00    +0.295 HD
ENDBRANCH  13  15
ENDBRANCH   2  13
TORSDOF 5
ENDMDL
MODEL 7
REMARK VINA RESULT:    -3.529      2.621      5.178
REMARK INTER + INTRA:          -4.197
REMARK INTER:                  -4.150
REMARK INTRA:                  -0.048
REMARK UNBOUND:                -0.050
REMARK  Name = data/mahkota_dewa_dn/results/docking/ligands/pdb/Gallic_acid.pdb
REMARK  5 active torsions:
REMARK  status: ('A' for Active; 'I' for Inactive)
REMARK    1  A    between atoms: C2_2  and  C7_10
REMARK    2  A    between atoms: C4_4  and  O3_9
REMARK    3  A    between atoms: C5_5  and  O2_8
REMARK    4  A    between atoms: C6_6  and  O1_7
REMARK    5  A    between atoms: C7_10  and  O5_12
REMARK                            x       y       z     vdW  Elec       q    Type
REMARK                         _______ _______ _______ _____ _____    ______ ____
ROOT
ATOM      1  C1  UNL     1      15.322   5.748  13.843  0.00  0.00    +0.064 A 
ATOM      2  C2  UNL     1      15.387   5.146  12.575  0.00  0.00    +0.066 A 
ATOM      3  C3  UNL     1      15.066   3.789  12.419  0.00  0.00    +0.064 A 
ATOM      4  C4  UNL     1      14.685   3.051  13.534  0.00  0.00    +0.163 A 
ATOM      5  C5  UNL     1      14.620   3.648  14.794  0.00  0.00    +0.201 A 
ATOM      6  C6  UNL     1      14.938   4.994  14.949  0.00  0.00    +0.163 A 
ENDROOT
BRANCH   6   7
ATOM      7  O1  UNL     1      14.870   5.565  16.188  0.00  0.00    -0.503 OA
ATOM      8  H3  UNL     1      14.813   6.529  16.100  0.00  0.00    +0.292 HD
ENDBRANCH   6   7
BRANCH   5   9
ATOM      9  O2  UNL     1      14.241   2.891  15.868  0.00  0.00    -0.501 OA
ATOM     10  H4  UNL     1      13.302   3.115  16.015  0.00  0.00    +0.292 HD
ENDBRANCH   5   9
BRANCH   4  11
ATOM     11  O3  UNL     1      14.361   1.725  13.442  0.00  0.00    -0.503 OA
ATOM     12  H5  UNL     1      14.689   1.383  12.592  0.00  0.00    +0.292 HD
ENDBRANCH   4  11
BRANCH   2  13
ATOM     13  C7  UNL     1      15.801   5.987  11.427  0.00  0.00    +0.337 C 
ATOM     14  O4  UNL     1      16.848   5.891  10.816  0.00  0.00    -0.245 OA
BRANCH  13  15
ATOM     15  O5  UNL     1      14.880   6.912  11.100  0.00  0.00    -0.477 OA
ATOM     16  H6  UNL     1      14.224   6.856  11.828  0.00  0.00    +0.295 HD
ENDBRANCH  13  15
ENDBRANCH   2  13
TORSDOF 5
ENDMDL
MODEL 8
REMARK VINA RESULT:    -3.528      2.686      3.571
REMARK INTER + INTRA:          -4.197
REMARK INTER:                  -4.140
REMARK INTRA:                  -0.056
REMARK UNBOUND:                -0.050
REMARK  Name = data/mahkota_dewa_dn/results/docking/ligands/pdb/Gallic_acid.pdb
REMARK  5 active torsions:
REMARK  status: ('A' for Active; 'I' for Inactive)
REMARK    1  A    between atoms: C2_2  and  C7_10
REMARK    2  A    between atoms: C4_4  and  O3_9
REMARK    3  A    between atoms: C5_5  and  O2_8
REMARK    4  A    between atoms: C6_6  and  O1_7
REMARK    5  A    between atoms: C7_10  and  O5_12
REMARK                            x       y       z     vdW  Elec       q    Type
REMARK                         _______ _______ _______ _____ _____    ______ ____
ROOT
ATOM      1  C1  UNL     1      15.685   3.198  12.169  0.00  0.00    +0.064 A 
ATOM      2  C2  UNL     1      16.136   2.201  13.050  0.00  0.00    +0.066 A 
ATOM      3  C3  UNL     1      15.742   2.212  14.396  0.00  0.00    +0.064 A 
ATOM      4  C4  UNL     1      14.902   3.225  14.845  0.00  0.00    +0.163 A 
ATOM      5  C5  UNL     1      14.453   4.217  13.973  0.00  0.00    +0.201 A 
ATOM      6  C6  UNL     1      14.843   4.205  12.637  0.00  0.00    +0.163 A 
ENDROOT
BRANCH   6   7
ATOM      7  O1  UNL     1      14.396   5.183  11.795  0.00  0.00    -0.503 OA
ATOM      8  H3  UNL     1      13.852   4.787  11.097  0.00  0.00    +0.292 HD
ENDBRANCH   6   7
BRANCH   5   9
ATOM      9  O2  UNL     1      13.627   5.197  14.451  0.00  0.00    -0.501 OA
ATOM     10  H4  UNL     1      14.173   6.006  14.458  0.00  0.00    +0.292 HD
ENDBRANCH   5   9
BRANCH   4  11
ATOM     11  O3  UNL     1      14.485   3.287  16.147  0.00  0.00    -0.503 OA
ATOM     12  H5  UNL     1      14.769   2.477  16.604  0.00  0.00    +0.292 HD
ENDBRANCH   4  11
BRANCH   2  13
ATOM     13  C7  UNL     1      17.030   1.150  12.507  0.00  0.00    +0.337 C 
ATOM     14  O4  UNL     1      17.643   1.210  11.458  0.00  0.00    -0.245 OA
BRANCH  13  15
ATOM     15  O5  UNL     1      17.113   0.072  13.307  0.00  0.00    -0.477 OA
ATOM     16  H6  UNL     1      18.067   0.022  13.534  0.00  0.00    +0.295 HD
ENDBRANCH  13  15
ENDBRANCH   2  13
TORSDOF 5
ENDMDL
MODEL 9
REMARK VINA RESULT:    -3.517      2.720      3.736
REMARK INTER + INTRA:          -4.183
REMARK INTER:                  -4.125
REMARK INTRA:                  -0.058
REMARK UNBOUND:                -0.050
REMARK  Name = data/mahkota_dewa_dn/results/docking/ligands/pdb/Gallic_acid.pdb
REMARK  5 active torsions:
REMARK  status: ('A' for Active; 'I' for Inactive)
REMARK    1  A    between atoms: C2_2  and  C7_10
REMARK    2  A    between atoms: C4_4  and  O3_9
REMARK    3  A    between atoms: C5_5  and  O2_8
REMARK    4  A    between atoms: C6_6  and  O1_7
REMARK    5  A    between atoms: C7_10  and  O5_12
REMARK                            x       y       z     vdW  Elec       q    Type
REMARK                         _______ _______ _______ _____ _____    ______ ____
ROOT
ATOM      1  C1  UNL     1      15.729   2.263  14.192  0.00  0.00    +0.064 A 
ATOM      2  C2  UNL     1      16.075   2.302  12.831  0.00  0.00    +0.066 A 
ATOM      3  C3  UNL     1      15.602   3.336  12.009  0.00  0.00    +0.064 A 
ATOM      4  C4  UNL     1      14.786   4.317  12.560  0.00  0.00    +0.163 A 
ATOM      5  C5  UNL     1      14.440   4.280  13.911  0.00  0.00    +0.201 A 
ATOM      6  C6  UNL     1      14.910   3.255  14.727  0.00  0.00    +0.163 A 
ENDROOT
BRANCH   6   7
ATOM      7  O1  UNL     1      14.564   3.232  16.048  0.00  0.00    -0.503 OA
ATOM      8  H3  UNL     1      15.316   2.922  16.576  0.00  0.00    +0.292 HD
ENDBRANCH   6   7
BRANCH   5   9
ATOM      9  O2  UNL     1      13.636   5.263  14.418  0.00  0.00    -0.501 OA
ATOM     10  H4  UNL     1      13.488   5.013  15.350  0.00  0.00    +0.292 HD
ENDBRANCH   5   9
BRANCH   4  11
ATOM     11  O3  UNL     1      14.294   5.349  11.807  0.00  0.00    -0.503 OA
ATOM     12  H5  UNL     1      13.914   4.983  10.989  0.00  0.00    +0.292 HD
ENDBRANCH   4  11
BRANCH   2  13
ATOM     13  C7  UNL     1      16.948   1.225  12.306  0.00  0.00    +0.337 C 
ATOM     14  O4  UNL     1      17.593   1.271  11.275  0.00  0.00    -0.245 OA
BRANCH  13  15
ATOM     15  O5  UNL     1      16.972   0.140  13.100  0.00  0.00    -0.477 OA
ATOM     16  H6  UNL     1      16.958   0.513  14.007  0.00  0.00    +0.295 HD
ENDBRANCH  13  15
ENDBRANCH   2  13
TORSDOF 5
ENDMDL
