MODEL 1
REMARK VINA RESULT:    -8.892      0.000      0.000
REMARK INTER + INTRA:         -10.488
REMARK INTER:                 -10.192
REMARK INTRA:                  -0.296
REMARK UNBOUND:                -0.296
REMARK  Name = data/mahkota_dewa_dn/results/docking/ligands/pdb/Apigenin.pdb
REMARK  4 active torsions:
REMARK  status: ('A' for Active; 'I' for Inactive)
REMARK    1  A    between atoms: C3_3  and  O5_20
REMARK    2  A    between atoms: C6_6  and  C7_7
REMARK    3  A    between atoms: C11_12  and  O4_19
REMARK    4  A    between atoms: C13_14  and  O3_18
REMARK                            x       y       z     vdW  Elec       q    Type
REMARK                         _______ _______ _______ _____ _____    ______ ____
ROOT
ATOM      1  C7  UNL     1      28.888  33.080  67.604  0.00  0.00    +0.139 A 
ATOM      2  C8  UNL     1      29.531  32.431  66.621  0.00  0.00    +0.098 A 
ATOM      3  C9  UNL     1      30.864  32.896  66.215  0.00  0.00    +0.197 A 
ATOM      4  O1  UNL     1      31.493  32.344  65.320  0.00  0.00    -0.287 OA
ATOM      5  C10 UNL     1      31.416  34.054  66.928  0.00  0.00    +0.105 A 
ATOM      6  C11 UNL     1      32.676  34.575  66.620  0.00  0.00    +0.135 A 
ATOM      7  C12 UNL     1      33.170  35.675  67.317  0.00  0.00    +0.091 A 
ATOM      8  C13 UNL     1      32.395  36.245  68.324  0.00  0.00    +0.124 A 
ATOM      9  C14 UNL     1      31.138  35.734  68.640  0.00  0.00    +0.092 A 
ATOM     10  C15 UNL     1      30.649  34.632  67.937  0.00  0.00    +0.146 A 
ATOM     11  O2  UNL     1      29.407  34.167  68.291  0.00  0.00    -0.454 OA
ENDROOT
BRANCH   1  17
ATOM     12  C1  UNL     1      26.606  32.186  67.140  0.00  0.00    +0.015 A 
ATOM     13  C2  UNL     1      25.336  31.771  67.555  0.00  0.00    +0.046 A 
ATOM     14  C3  UNL     1      25.010  31.822  68.905  0.00  0.00    +0.117 A 
ATOM     15  C4  UNL     1      25.931  32.274  69.842  0.00  0.00    +0.046 A 
ATOM     16  C5  UNL     1      27.198  32.687  69.425  0.00  0.00    +0.015 A 
ATOM     17  C6  UNL     1      27.551  32.657  68.066  0.00  0.00    +0.018 A 
BRANCH  14  18
ATOM     18  O5  UNL     1      23.787  31.428  69.357  0.00  0.00    -0.507 OA
ATOM     19  H10 UNL     1      23.839  31.286  70.317  0.00  0.00    +0.292 HD
ENDBRANCH  14  18
ENDBRANCH   1  17
BRANCH   8  20
ATOM     20  O3  UNL     1      32.835  37.322  69.033  0.00  0.00    -0.507 OA
ATOM     21  H8  UNL     1      33.187  37.984  68.414  0.00  0.00    +0.292 HD
ENDBRANCH   8  20
BRANCH   6  22
ATOM     22  O4  UNL     1      33.479  34.054  65.641  0.00  0.00    -0.506 OA
ATOM     23  H9  UNL     1      33.066  33.223  65.315  0.00  0.00    +0.292 HD
ENDBRANCH   6  22
TORSDOF 4
ENDMDL
MODEL 2
REMARK VINA RESULT:    -8.859      3.849      6.842
REMARK INTER + INTRA:         -10.450
REMARK INTER:                 -10.142
REMARK INTRA:                  -0.308
REMARK UNBOUND:                -0.296
REMARK  Name = data/mahkota_dewa_dn/results/docking/ligands/pdb/Apigenin.pdb
REMARK  4 active torsions:
REMARK  status: ('A' for Active; 'I' for Inactive)
REMARK    1  A    between atoms: C3_3  and  O5_20
REMARK    2  A    between atoms: C6_6  and  C7_7
REMARK    3  A    between atoms: C11_12  and  O4_19
REMARK    4  A    between atoms: C13_14  and  O3_18
REMARK                            x       y       z     vdW  Elec       q    Type
REMARK                         _______ _______ _______ _____ _____    ______ ____
ROOT
ATOM      1  C7  UNL     1      27.805  30.544  65.007  0.00  0.00    +0.139 A 
ATOM      2  C8  UNL     1      28.841  31.254  65.479  0.00  0.00    +0.098 A 
ATOM      3  C9  UNL     1      28.614  32.192  66.588  0.00  0.00    +0.197 A 
ATOM      4  O1  UNL     1      29.522  32.870  67.054  0.00  0.00    -0.287 OA
ATOM      5  C10 UNL     1      27.249  32.285  67.117  0.00  0.00    +0.105 A 
ATOM      6  C11 UNL     1      26.926  33.146  68.171  0.00  0.00    +0.135 A 
ATOM      7  C12 UNL     1      25.619  33.209  68.650  0.00  0.00    +0.091 A 
ATOM      8  C13 UNL     1      24.643  32.405  68.068  0.00  0.00    +0.124 A 
ATOM      9  C14 UNL     1      24.953  31.543  67.019  0.00  0.00    +0.092 A 
ATOM     10  C15 UNL     1      26.263  31.485  66.543  0.00  0.00    +0.146 A 
ATOM     11  O2  UNL     1      26.515  30.618  65.510  0.00  0.00    -0.454 OA
ENDROOT
BRANCH   1  17
ATOM     12  C1  UNL     1      29.238  29.054  63.612  0.00  0.00    +0.015 A 
ATOM     13  C2  UNL     1      29.415  28.130  62.576  0.00  0.00    +0.046 A 
ATOM     14  C3  UNL     1      28.316  27.723  61.830  0.00  0.00    +0.117 A 
ATOM     15  C4  UNL     1      27.048  28.219  62.106  0.00  0.00    +0.046 A 
ATOM     16  C5  UNL     1      26.873  29.141  63.140  0.00  0.00    +0.015 A 
ATOM     17  C6  UNL     1      27.968  29.578  63.903  0.00  0.00    +0.018 A 
BRANCH  14  18
ATOM     18  O5  UNL     1      28.439  26.825  60.813  0.00  0.00    -0.507 OA
ATOM     19  H10 UNL     1      28.937  27.240  60.089  0.00  0.00    +0.292 HD
ENDBRANCH  14  18
ENDBRANCH   1  17
BRANCH   8  20
ATOM     20  O3  UNL     1      23.352  32.432  68.503  0.00  0.00    -0.507 OA
ATOM     21  H8  UNL     1      22.854  31.728  68.052  0.00  0.00    +0.292 HD
ENDBRANCH   8  20
BRANCH   6  22
ATOM     22  O4  UNL     1      27.846  33.958  68.779  0.00  0.00    -0.506 OA
ATOM     23  H9  UNL     1      28.637  34.015  68.197  0.00  0.00    +0.292 HD
ENDBRANCH   6  22
TORSDOF 4
ENDMDL
MODEL 3
REMARK VINA RESULT:    -8.347      2.497      3.878
REMARK INTER + INTRA:          -9.864
REMARK INTER:                  -9.549
REMARK INTRA:                  -0.314
REMARK UNBOUND:                -0.296
REMARK  Name = data/mahkota_dewa_dn/results/docking/ligands/pdb/Apigenin.pdb
REMARK  4 active torsions:
REMARK  status: ('A' for Active; 'I' for Inactive)
REMARK    1  A    between atoms: C3_3  and  O5_20
REMARK    2  A    between atoms: C6_6  and  C7_7
REMARK    3  A    between atoms: C11_12  and  O4_19
REMARK    4  A    between atoms: C13_14  and  O3_18
REMARK                            x       y       z     vdW  Elec       q    Type
REMARK                         _______ _______ _______ _____ _____    ______ ____
ROOT
ATOM      1  C7  UNL     1      30.459  33.476  66.631  0.00  0.00    +0.139 A 
ATOM      2  C8  UNL     1      29.935  34.325  67.528  0.00  0.00    +0.098 A 
ATOM      3  C9  UNL     1      30.792  35.369  68.106  0.00  0.00    +0.197 A 
ATOM      4  O1  UNL     1      30.367  36.167  68.933  0.00  0.00    -0.287 OA
ATOM      5  C10 UNL     1      32.187  35.416  67.653  0.00  0.00    +0.105 A 
ATOM      6  C11 UNL     1      33.087  36.369  68.140  0.00  0.00    +0.135 A 
ATOM      7  C12 UNL     1      34.404  36.387  67.687  0.00  0.00    +0.091 A 
ATOM      8  C13 UNL     1      34.810  35.447  66.744  0.00  0.00    +0.124 A 
ATOM      9  C14 UNL     1      33.923  34.493  66.251  0.00  0.00    +0.092 A 
ATOM     10  C15 UNL     1      32.605  34.480  66.709  0.00  0.00    +0.146 A 
ATOM     11  O2  UNL     1      31.772  33.522  66.189  0.00  0.00    -0.454 OA
ENDROOT
BRANCH   1  17
ATOM     12  C1  UNL     1      30.255  31.483  65.146  0.00  0.00    +0.015 A 
ATOM     13  C2  UNL     1      29.509  30.462  64.549  0.00  0.00    +0.046 A 
ATOM     14  C3  UNL     1      28.149  30.364  64.817  0.00  0.00    +0.117 A 
ATOM     15  C4  UNL     1      27.527  31.265  65.672  0.00  0.00    +0.046 A 
ATOM     16  C5  UNL     1      28.274  32.284  66.267  0.00  0.00    +0.015 A 
ATOM     17  C6  UNL     1      29.648  32.413  66.005  0.00  0.00    +0.018 A 
BRANCH  14  18
ATOM     18  O5  UNL     1      27.382  29.386  64.260  0.00  0.00    -0.507 OA
ATOM     19  H10 UNL     1      26.945  29.745  63.469  0.00  0.00    +0.292 HD
ENDBRANCH  14  18
ENDBRANCH   1  17
BRANCH   8  20
ATOM     20  O3  UNL     1      36.088  35.425  66.271  0.00  0.00    -0.507 OA
ATOM     21  H8  UNL     1      36.695  35.650  66.996  0.00  0.00    +0.292 HD
ENDBRANCH   8  20
BRANCH   6  22
ATOM     22  O4  UNL     1      32.740  37.316  69.067  0.00  0.00    -0.506 OA
ATOM     23  H9  UNL     1      31.758  37.338  69.131  0.00  0.00    +0.292 HD
ENDBRANCH   6  22
TORSDOF 4
ENDMDL
MODEL 4
REMARK VINA RESULT:    -8.197      1.927      2.607
REMARK INTER + INTRA:          -9.692
REMARK INTER:                  -9.380
REMARK INTRA:                  -0.312
REMARK UNBOUND:                -0.296
REMARK  Name = data/mahkota_dewa_dn/results/docking/ligands/pdb/Apigenin.pdb
REMARK  4 active torsions:
REMARK  status: ('A' for Active; 'I' for Inactive)
REMARK    1  A    between atoms: C3_3  and  O5_20
REMARK    2  A    between atoms: C6_6  and  C7_7
REMARK    3  A    between atoms: C11_12  and  O4_19
REMARK    4  A    between atoms: C13_14  and  O3_18
REMARK                            x       y       z     vdW  Elec       q    Type
REMARK                         _______ _______ _______ _____ _____    ______ ____
ROOT
ATOM      1  C7  UNL     1      30.727  33.409  65.997  0.00  0.00    +0.139 A 
ATOM      2  C8  UNL     1      31.693  33.155  65.102  0.00  0.00    +0.098 A 
ATOM      3  C9  UNL     1      32.959  33.896  65.191  0.00  0.00    +0.197 A 
ATOM      4  O1  UNL     1      33.872  33.707  64.397  0.00  0.00    -0.287 OA
ATOM      5  C10 UNL     1      33.085  34.877  66.275  0.00  0.00    +0.105 A 
ATOM      6  C11 UNL     1      34.248  35.635  66.448  0.00  0.00    +0.135 A 
ATOM      7  C12 UNL     1      34.335  36.557  67.489  0.00  0.00    +0.091 A 
ATOM      8  C13 UNL     1      33.253  36.711  68.352  0.00  0.00    +0.124 A 
ATOM      9  C14 UNL     1      32.091  35.961  68.189  0.00  0.00    +0.092 A 
ATOM     10  C15 UNL     1      32.009  35.040  67.145  0.00  0.00    +0.146 A 
ATOM     11  O2  UNL     1      30.843  34.326  67.031  0.00  0.00    -0.454 OA
ENDROOT
BRANCH   1  17
ATOM     12  C1  UNL     1      29.285  31.554  65.160  0.00  0.00    +0.015 A 
ATOM     13  C2  UNL     1      28.075  30.853  65.124  0.00  0.00    +0.046 A 
ATOM     14  C3  UNL     1      27.012  31.287  65.907  0.00  0.00    +0.117 A 
ATOM     15  C4  UNL     1      27.141  32.403  66.724  0.00  0.00    +0.046 A 
ATOM     16  C5  UNL     1      28.350  33.102  66.758  0.00  0.00    +0.015 A 
ATOM     17  C6  UNL     1      29.437  32.692  65.969  0.00  0.00    +0.018 A 
BRANCH  14  18
ATOM     18  O5  UNL     1      25.815  30.637  65.906  0.00  0.00    -0.507 OA
ATOM     19  H10 UNL     1      25.499  30.563  66.822  0.00  0.00    +0.292 HD
ENDBRANCH  14  18
ENDBRANCH   1  17
BRANCH   8  20
ATOM     20  O3  UNL     1      33.292  37.601  69.384  0.00  0.00    -0.507 OA
ATOM     21  H8  UNL     1      32.546  37.420  69.982  0.00  0.00    +0.292 HD
ENDBRANCH   8  20
BRANCH   6  22
ATOM     22  O4  UNL     1      35.340  35.523  65.630  0.00  0.00    -0.506 OA
ATOM     23  H9  UNL     1      35.702  34.613  65.725  0.00  0.00    +0.292 HD
ENDBRANCH   6  22
TORSDOF 4
ENDMDL
MODEL 5
REMARK VINA RESULT:    -8.192      4.004      6.205
REMARK INTER + INTRA:          -9.685
REMARK INTER:                  -9.370
REMARK INTRA:                  -0.315
REMARK UNBOUND:                -0.296
REMARK  Name = data/mahkota_dewa_dn/results/docking/ligands/pdb/Apigenin.pdb
REMARK  4 active torsions:
REMARK  status: ('A' for Active; 'I' for Inactive)
REMARK    1  A    between atoms: C3_3  and  O5_20
REMARK    2  A    between atoms: C6_6  and  C7_7
REMARK    3  A    between atoms: C11_12  and  O4_19
REMARK    4  A    between atoms: C13_14  and  O3_18
REMARK                            x       y       z     vdW  Elec       q    Type
REMARK                         _______ _______ _______ _____ _____    ______ ____
ROOT
ATOM      1  C7  UNL     1      27.976  30.359  64.696  0.00  0.00    +0.139 A 
ATOM      2  C8  UNL     1      26.742  30.541  65.190  0.00  0.00    +0.098 A 
ATOM      3  C9  UNL     1      26.541  31.531  66.257  0.00  0.00    +0.197 A 
ATOM      4  O1  UNL     1      25.437  31.734  66.748  0.00  0.00    -0.287 OA
ATOM      5  C10 UNL     1      27.723  32.271  66.715  0.00  0.00    +0.105 A 
ATOM      6  C11 UNL     1      27.641  33.235  67.725  0.00  0.00    +0.135 A 
ATOM      7  C12 UNL     1      28.783  33.920  68.135  0.00  0.00    +0.091 A 
ATOM      8  C13 UNL     1      30.002  33.634  67.525  0.00  0.00    +0.124 A 
ATOM      9  C14 UNL     1      30.095  32.676  66.518  0.00  0.00    +0.092 A 
ATOM     10  C15 UNL     1      28.948  31.994  66.112  0.00  0.00    +0.146 A 
ATOM     11  O2  UNL     1      29.095  31.063  65.115  0.00  0.00    -0.454 OA
ENDROOT
BRANCH   1  17
ATOM     12  C1  UNL     1      29.537  29.270  63.084  0.00  0.00    +0.015 A 
ATOM     13  C2  UNL     1      29.815  28.351  62.067  0.00  0.00    +0.046 A 
ATOM     14  C3  UNL     1      28.795  27.539  61.584  0.00  0.00    +0.117 A 
ATOM     15  C4  UNL     1      27.510  27.630  62.101  0.00  0.00    +0.046 A 
ATOM     16  C5  UNL     1      27.234  28.549  63.116  0.00  0.00    +0.015 A 
ATOM     17  C6  UNL     1      28.242  29.388  63.616  0.00  0.00    +0.018 A 
BRANCH  14  18
ATOM     18  O5  UNL     1      29.019  26.629  60.595  0.00  0.00    -0.507 OA
ATOM     19  H10 UNL     1      28.258  26.632  59.991  0.00  0.00    +0.292 HD
ENDBRANCH  14  18
ENDBRANCH   1  17
BRANCH   8  20
ATOM     20  O3  UNL     1      31.146  34.278  67.892  0.00  0.00    -0.507 OA
ATOM     21  H8  UNL     1      31.526  34.712  67.110  0.00  0.00    +0.292 HD
ENDBRANCH   8  20
BRANCH   6  22
ATOM     22  O4  UNL     1      26.470  33.556  68.357  0.00  0.00    -0.506 OA
ATOM     23  H9  UNL     1      25.812  33.812  67.671  0.00  0.00    +0.292 HD
ENDBRANCH   6  22
TORSDOF 4
ENDMDL
MODEL 6
REMARK VINA RESULT:    -8.023      1.568      6.590
REMARK INTER + INTRA:          -9.491
REMARK INTER:                  -9.188
REMARK INTRA:                  -0.303
REMARK UNBOUND:                -0.296
REMARK  Name = data/mahkota_dewa_dn/results/docking/ligands/pdb/Apigenin.pdb
REMARK  4 active torsions:
REMARK  status: ('A' for Active; 'I' for Inactive)
REMARK    1  A    between atoms: C3_3  and  O5_20
REMARK    2  A    between atoms: C6_6  and  C7_7
REMARK    3  A    between atoms: C11_12  and  O4_19
REMARK    4  A    between atoms: C13_14  and  O3_18
REMARK                            x       y       z     vdW  Elec       q    Type
REMARK                         _______ _______ _______ _____ _____    ______ ____
ROOT
ATOM      1  C7  UNL     1      29.480  33.482  67.149  0.00  0.00    +0.139 A 
ATOM      2  C8  UNL     1      29.446  32.837  65.974  0.00  0.00    +0.098 A 
ATOM      3  C9  UNL     1      28.254  32.050  65.627  0.00  0.00    +0.197 A 
ATOM      4  O1  UNL     1      28.172  31.437  64.570  0.00  0.00    -0.287 OA
ATOM      5  C10 UNL     1      27.160  32.026  66.605  0.00  0.00    +0.105 A 
ATOM      6  C11 UNL     1      25.982  31.308  66.374  0.00  0.00    +0.135 A 
ATOM      7  C12 UNL     1      24.963  31.308  67.323  0.00  0.00    +0.091 A 
ATOM      8  C13 UNL     1      25.131  32.032  68.500  0.00  0.00    +0.124 A 
ATOM      9  C14 UNL     1      26.300  32.752  68.742  0.00  0.00    +0.092 A 
ATOM     10  C15 UNL     1      27.317  32.747  67.787  0.00  0.00    +0.146 A 
ATOM     11  O2  UNL     1      28.445  33.474  68.073  0.00  0.00    -0.454 OA
ENDROOT
BRANCH   1  17
ATOM     12  C1  UNL     1      31.923  33.978  67.071  0.00  0.00    +0.015 A 
ATOM     13  C2  UNL     1      33.037  34.742  67.432  0.00  0.00    +0.046 A 
ATOM     14  C3  UNL     1      32.872  35.836  68.273  0.00  0.00    +0.117 A 
ATOM     15  C4  UNL     1      31.614  36.178  68.754  0.00  0.00    +0.046 A 
ATOM     16  C5  UNL     1      30.502  35.414  68.392  0.00  0.00    +0.015 A 
ATOM     17  C6  UNL     1      30.643  34.297  67.552  0.00  0.00    +0.018 A 
BRANCH  14  18
ATOM     18  O5  UNL     1      33.927  36.610  68.651  0.00  0.00    -0.507 OA
ATOM     19  H10 UNL     1      33.949  37.404  68.091  0.00  0.00    +0.292 HD
ENDBRANCH  14  18
ENDBRANCH   1  17
BRANCH   8  20
ATOM     20  O3  UNL     1      24.162  32.063  69.459  0.00  0.00    -0.507 OA
ATOM     21  H8  UNL     1      23.335  32.379  69.058  0.00  0.00    +0.292 HD
ENDBRANCH   8  20
BRANCH   6  22
ATOM     22  O4  UNL     1      25.764  30.581  65.234  0.00  0.00    -0.506 OA
ATOM     23  H9  UNL     1      25.994  29.643  65.421  0.00  0.00    +0.292 HD
ENDBRANCH   6  22
TORSDOF 4
ENDMDL
MODEL 7
REMARK VINA RESULT:    -7.908      1.635      2.344
REMARK INTER + INTRA:          -9.360
REMARK INTER:                  -9.060
REMARK INTRA:                  -0.300
REMARK UNBOUND:                -0.296
REMARK  Name = data/mahkota_dewa_dn/results/docking/ligands/pdb/Apigenin.pdb
REMARK  4 active torsions:
REMARK  status: ('A' for Active; 'I' for Inactive)
REMARK    1  A    between atoms: C3_3  and  O5_20
REMARK    2  A    between atoms: C6_6  and  C7_7
REMARK    3  A    between atoms: C11_12  and  O4_19
REMARK    4  A    between atoms: C13_14  and  O3_18
REMARK                            x       y       z     vdW  Elec       q    Type
REMARK                         _______ _______ _______ _____ _____    ______ ____
ROOT
ATOM      1  C7  UNL     1      28.454  32.242  66.331  0.00  0.00    +0.139 A 
ATOM      2  C8  UNL     1      28.792  31.354  65.385  0.00  0.00    +0.098 A 
ATOM      3  C9  UNL     1      30.037  31.555  64.630  0.00  0.00    +0.197 A 
ATOM      4  O1  UNL     1      30.390  30.778  63.751  0.00  0.00    -0.287 OA
ATOM      5  C10 UNL     1      30.844  32.732  64.973  0.00  0.00    +0.105 A 
ATOM      6  C11 UNL     1      32.045  33.016  64.316  0.00  0.00    +0.135 A 
ATOM      7  C12 UNL     1      32.787  34.141  64.667  0.00  0.00    +0.091 A 
ATOM      8  C13 UNL     1      32.319  34.975  65.679  0.00  0.00    +0.124 A 
ATOM      9  C14 UNL     1      31.124  34.702  66.341  0.00  0.00    +0.092 A 
ATOM     10  C15 UNL     1      30.385  33.574  65.984  0.00  0.00    +0.146 A 
ATOM     11  O2  UNL     1      29.217  33.350  66.669  0.00  0.00    -0.454 OA
ENDROOT
BRANCH   1  17
ATOM     12  C1  UNL     1      27.204  32.504  68.473  0.00  0.00    +0.015 A 
ATOM     13  C2  UNL     1      26.046  32.380  69.248  0.00  0.00    +0.046 A 
ATOM     14  C3  UNL     1      24.897  31.846  68.677  0.00  0.00    +0.117 A 
ATOM     15  C4  UNL     1      24.887  31.439  67.348  0.00  0.00    +0.046 A 
ATOM     16  C5  UNL     1      26.045  31.565  66.577  0.00  0.00    +0.015 A 
ATOM     17  C6  UNL     1      27.222  32.091  67.131  0.00  0.00    +0.018 A 
BRANCH  14  18
ATOM     18  O5  UNL     1      23.746  31.706  69.391  0.00  0.00    -0.507 OA
ATOM     19  H10 UNL     1      23.974  31.516  70.317  0.00  0.00    +0.292 HD
ENDBRANCH  14  18
ENDBRANCH   1  17
BRANCH   8  20
ATOM     20  O3  UNL     1      33.011  36.087  66.058  0.00  0.00    -0.507 OA
ATOM     21  H8  UNL     1      32.623  36.862  65.617  0.00  0.00    +0.292 HD
ENDBRANCH   8  20
BRANCH   6  22
ATOM     22  O4  UNL     1      32.552  32.230  63.316  0.00  0.00    -0.506 OA
ATOM     23  H9  UNL     1      33.487  32.496  63.161  0.00  0.00    +0.292 HD
ENDBRANCH   6  22
TORSDOF 4
ENDMDL
MODEL 8
REMARK VINA RESULT:    -7.780      2.333      7.016
REMARK INTER + INTRA:          -9.214
REMARK INTER:                  -8.901
REMARK INTRA:                  -0.313
REMARK UNBOUND:                -0.296
REMARK  Name = data/mahkota_dewa_dn/results/docking/ligands/pdb/Apigenin.pdb
REMARK  4 active torsions:
REMARK  status: ('A' for Active; 'I' for Inactive)
REMARK    1  A    between atoms: C3_3  and  O5_20
REMARK    2  A    between atoms: C6_6  and  C7_7
REMARK    3  A    between atoms: C11_12  and  O4_19
REMARK    4  A    between atoms: C13_14  and  O3_18
REMARK                            x       y       z     vdW  Elec       q    Type
REMARK                         _______ _______ _______ _____ _____    ______ ____
ROOT
ATOM      1  C7  UNL     1      29.767  33.322  66.798  0.00  0.00    +0.139 A 
ATOM      2  C8  UNL     1      28.582  33.528  67.392  0.00  0.00    +0.098 A 
ATOM      3  C9  UNL     1      27.435  32.698  67.000  0.00  0.00    +0.197 A 
ATOM      4  O1  UNL     1      26.329  32.847  67.507  0.00  0.00    -0.287 OA
ATOM      5  C10 UNL     1      27.667  31.678  65.971  0.00  0.00    +0.105 A 
ATOM      6  C11 UNL     1      26.643  30.836  65.526  0.00  0.00    +0.135 A 
ATOM      7  C12 UNL     1      26.898  29.878  64.547  0.00  0.00    +0.091 A 
ATOM      8  C13 UNL     1      28.182  29.770  64.022  0.00  0.00    +0.124 A 
ATOM      9  C14 UNL     1      29.210  30.603  64.458  0.00  0.00    +0.092 A 
ATOM     10  C15 UNL     1      28.949  31.561  65.437  0.00  0.00    +0.146 A 
ATOM     11  O2  UNL     1      29.997  32.353  65.832  0.00  0.00    -0.454 OA
ENDROOT
BRANCH   1  17
ATOM     12  C1  UNL     1      30.870  35.115  68.135  0.00  0.00    +0.015 A 
ATOM     13  C2  UNL     1      31.990  35.872  68.495  0.00  0.00    +0.046 A 
ATOM     14  C3  UNL     1      33.209  35.623  67.876  0.00  0.00    +0.117 A 
ATOM     15  C4  UNL     1      33.326  34.632  66.910  0.00  0.00    +0.046 A 
ATOM     16  C5  UNL     1      32.207  33.877  66.552  0.00  0.00    +0.015 A 
ATOM     17  C6  UNL     1      30.961  34.114  67.154  0.00  0.00    +0.018 A 
BRANCH  14  18
ATOM     18  O5  UNL     1      34.327  36.334  68.195  0.00  0.00    -0.507 OA
ATOM     19  H10 UNL     1      34.489  36.990  67.497  0.00  0.00    +0.292 HD
ENDBRANCH  14  18
ENDBRANCH   1  17
BRANCH   8  20
ATOM     20  O3  UNL     1      28.480  28.848  63.063  0.00  0.00    -0.507 OA
ATOM     21  H8  UNL     1      29.447  28.787  62.976  0.00  0.00    +0.292 HD
ENDBRANCH   8  20
BRANCH   6  22
ATOM     22  O4  UNL     1      25.363  30.899  66.009  0.00  0.00    -0.506 OA
ATOM     23  H9  UNL     1      24.745  30.712  65.266  0.00  0.00    +0.292 HD
ENDBRANCH   6  22
TORSDOF 4
ENDMDL
MODEL 9
REMARK VINA RESULT:    -7.626      4.820      7.499
REMARK INTER + INTRA:          -9.037
REMARK INTER:                  -8.723
REMARK INTRA:                  -0.313
REMARK UNBOUND:                -0.296
REMARK  Name = data/mahkota_dewa_dn/results/docking/ligands/pdb/Apigenin.pdb
REMARK  4 active torsions:
REMARK  status: ('A' for Active; 'I' for Inactive)
REMARK    1  A    between atoms: C3_3  and  O5_20
REMARK    2  A    between atoms: C6_6  and  C7_7
REMARK    3  A    between atoms: C11_12  and  O4_19
REMARK    4  A    between atoms: C13_14  and  O3_18
REMARK                            x       y       z     vdW  Elec       q    Type
REMARK                         _______ _______ _______ _____ _____    ______ ____
ROOT
ATOM      1  C7  UNL     1      28.951  29.593  63.668  0.00  0.00    +0.139 A 
ATOM      2  C8  UNL     1      29.992  30.312  64.113  0.00  0.00    +0.098 A 
ATOM      3  C9  UNL     1      29.772  31.304  65.174  0.00  0.00    +0.197 A 
ATOM      4  O1  UNL     1      30.686  31.992  65.613  0.00  0.00    -0.287 OA
ATOM      5  C10 UNL     1      28.405  31.439  65.690  0.00  0.00    +0.105 A 
ATOM      6  C11 UNL     1      28.087  32.353  66.700  0.00  0.00    +0.135 A 
ATOM      7  C12 UNL     1      26.778  32.455  67.167  0.00  0.00    +0.091 A 
ATOM      8  C13 UNL     1      25.795  31.636  66.618  0.00  0.00    +0.124 A 
ATOM      9  C14 UNL     1      26.100  30.722  65.612  0.00  0.00    +0.092 A 
ATOM     10  C15 UNL     1      27.412  30.625  65.148  0.00  0.00    +0.146 A 
ATOM     11  O2  UNL     1      27.659  29.707  64.159  0.00  0.00    -0.454 OA
ENDROOT
BRANCH   1  17
ATOM     12  C1  UNL     1      30.369  28.351  62.035  0.00  0.00    +0.015 A 
ATOM     13  C2  UNL     1      30.543  27.384  61.040  0.00  0.00    +0.046 A 
ATOM     14  C3  UNL     1      29.453  26.630  60.622  0.00  0.00    +0.117 A 
ATOM     15  C4  UNL     1      28.198  26.825  61.184  0.00  0.00    +0.046 A 
ATOM     16  C5  UNL     1      28.026  27.791  62.179  0.00  0.00    +0.015 A 
ATOM     17  C6  UNL     1      29.108  28.573  62.612  0.00  0.00    +0.018 A 
BRANCH  14  18
ATOM     18  O5  UNL     1      29.574  25.677  59.656  0.00  0.00    -0.507 OA
ATOM     19  H10 UNL     1      29.726  26.116  58.802  0.00  0.00    +0.292 HD
ENDBRANCH  14  18
ENDBRANCH   1  17
BRANCH   8  20
ATOM     20  O3  UNL     1      24.502  31.700  67.043  0.00  0.00    -0.507 OA
ATOM     21  H8  UNL     1      24.361  31.019  67.722  0.00  0.00    +0.292 HD
ENDBRANCH   8  20
BRANCH   6  22
ATOM     22  O4  UNL     1      29.013  33.181  67.274  0.00  0.00    -0.506 OA
ATOM     23  H9  UNL     1      29.029  34.024  66.766  0.00  0.00    +0.292 HD
ENDBRANCH   6  22
TORSDOF 4
ENDMDL
