MODEL 1
REMARK VINA RESULT:    -8.960      0.000      0.000
REMARK INTER + INTRA:         -10.782
REMARK INTER:                 -10.794
REMARK INTRA:                   0.011
REMARK UNBOUND:                 0.011
REMARK  Name = data/mahkota_dewa_dn/results/docking/ligands/pdb/Quercetin.pdb
REMARK  6 active torsions:
REMARK  status: ('A' for Active; 'I' for Inactive)
REMARK    1  A    between atoms: C3_3  and  O7_22
REMARK    2  A    between atoms: C4_4  and  O6_21
REMARK    3  A    between atoms: C6_6  and  C7_7
REMARK    4  A    between atoms: C8_8  and  O5_20
REMARK    5  A    between atoms: C11_12  and  O4_19
REMARK    6  A    between atoms: C13_14  and  O3_18
REMARK                            x       y       z     vdW  Elec       q    Type
REMARK                         _______ _______ _______ _____ _____    ______ ____
ROOT
ATOM      1  C7  UNL     1      28.954  32.958  67.510  0.00  0.00    +0.181 A 
ATOM      2  C8  UNL     1      29.592  32.349  66.493  0.00  0.00    +0.208 A 
ATOM      3  C9  UNL     1      30.917  32.865  66.081  0.00  0.00    +0.238 A 
ATOM      4  O1  UNL     1      31.532  32.338  65.155  0.00  0.00    -0.283 OA
ATOM      5  C10 UNL     1      31.457  34.011  66.814  0.00  0.00    +0.109 A 
ATOM      6  C11 UNL     1      32.702  34.565  66.502  0.00  0.00    +0.135 A 
ATOM      7  C12 UNL     1      33.184  35.657  67.220  0.00  0.00    +0.091 A 
ATOM      8  C13 UNL     1      32.409  36.186  68.248  0.00  0.00    +0.124 A 
ATOM      9  C14 UNL     1      31.167  35.643  68.566  0.00  0.00    +0.092 A 
ATOM     10  C15 UNL     1      30.691  34.549  67.844  0.00  0.00    +0.147 A 
ATOM     11  O2  UNL     1      29.462  34.054  68.198  0.00  0.00    -0.451 OA
ENDROOT
BRANCH   1  17
ATOM     12  C1  UNL     1      27.338  32.426  69.370  0.00  0.00    +0.015 A 
ATOM     13  C2  UNL     1      26.067  32.050  69.819  0.00  0.00    +0.050 A 
ATOM     14  C3  UNL     1      25.070  31.796  68.887  0.00  0.00    +0.158 A 
ATOM     15  C4  UNL     1      25.334  31.917  67.527  0.00  0.00    +0.159 A 
ATOM     16  C5  UNL     1      26.594  32.288  67.074  0.00  0.00    +0.060 A 
ATOM     17  C6  UNL     1      27.622  32.541  67.996  0.00  0.00    +0.025 A 
BRANCH  15  18
ATOM     18  O6  UNL     1      24.347  31.669  66.617  0.00  0.00    -0.503 OA
ATOM     19  H9  UNL     1      23.639  32.305  66.844  0.00  0.00    +0.292 HD
ENDBRANCH  15  18
BRANCH  14  20
ATOM     20  O7  UNL     1      23.808  31.425  69.260  0.00  0.00    -0.503 OA
ATOM     21  H10 UNL     1      23.183  32.076  68.897  0.00  0.00    +0.292 HD
ENDBRANCH  14  20
ENDBRANCH   1  17
BRANCH   8  22
ATOM     22  O3  UNL     1      32.837  37.254  68.980  0.00  0.00    -0.507 OA
ATOM     23  H6  UNL     1      32.971  38.011  68.385  0.00  0.00    +0.292 HD
ENDBRANCH   8  22
BRANCH   6  24
ATOM     24  O4  UNL     1      33.503  34.085  65.502  0.00  0.00    -0.506 OA
ATOM     25  H7  UNL     1      34.328  34.619  65.479  0.00  0.00    +0.292 HD
ENDBRANCH   6  24
BRANCH   2  26
ATOM     26  O5  UNL     1      29.086  31.275  65.784  0.00  0.00    -0.501 OA
ATOM     27  H8  UNL     1      29.862  30.864  65.347  0.00  0.00    +0.292 HD
ENDBRANCH   2  26
TORSDOF 6
ENDMDL
MODEL 2
REMARK VINA RESULT:    -8.720      2.122      7.884
REMARK INTER + INTRA:         -10.493
REMARK INTER:                 -10.175
REMARK INTRA:                  -0.318
REMARK UNBOUND:                 0.011
REMARK  Name = data/mahkota_dewa_dn/results/docking/ligands/pdb/Quercetin.pdb
REMARK  6 active torsions:
REMARK  status: ('A' for Active; 'I' for Inactive)
REMARK    1  A    between atoms: C3_3  and  O7_22
REMARK    2  A    between atoms: C4_4  and  O6_21
REMARK    3  A    between atoms: C6_6  and  C7_7
REMARK    4  A    between atoms: C8_8  and  O5_20
REMARK    5  A    between atoms: C11_12  and  O4_19
REMARK    6  A    between atoms: C13_14  and  O3_18
REMARK                            x       y       z     vdW  Elec       q    Type
REMARK                         _______ _______ _______ _____ _____    ______ ____
ROOT
ATOM      1  C7  UNL     1      32.363  34.801  66.651  0.00  0.00    +0.181 A 
ATOM      2  C8  UNL     1      31.885  35.364  67.776  0.00  0.00    +0.208 A 
ATOM      3  C9  UNL     1      30.567  34.919  68.283  0.00  0.00    +0.238 A 
ATOM      4  O1  UNL     1      30.093  35.410  69.306  0.00  0.00    -0.283 OA
ATOM      5  C10 UNL     1      29.863  33.884  67.524  0.00  0.00    +0.109 A 
ATOM      6  C11 UNL     1      28.616  33.396  67.927  0.00  0.00    +0.135 A 
ATOM      7  C12 UNL     1      27.974  32.411  67.180  0.00  0.00    +0.091 A 
ATOM      8  C13 UNL     1      28.590  31.923  66.031  0.00  0.00    +0.124 A 
ATOM      9  C14 UNL     1      29.832  32.403  65.621  0.00  0.00    +0.092 A 
ATOM     10  C15 UNL     1      30.469  33.389  66.375  0.00  0.00    +0.147 A 
ATOM     11  O2  UNL     1      31.689  33.826  65.925  0.00  0.00    -0.451 OA
ENDROOT
BRANCH   1  17
ATOM     12  C1  UNL     1      33.801  36.342  65.268  0.00  0.00    +0.015 A 
ATOM     13  C2  UNL     1      35.036  36.698  64.716  0.00  0.00    +0.050 A 
ATOM     14  C3  UNL     1      36.138  35.887  64.947  0.00  0.00    +0.158 A 
ATOM     15  C4  UNL     1      36.013  34.738  65.721  0.00  0.00    +0.159 A 
ATOM     16  C5  UNL     1      34.790  34.378  66.272  0.00  0.00    +0.060 A 
ATOM     17  C6  UNL     1      33.658  35.177  66.044  0.00  0.00    +0.025 A 
BRANCH  15  18
ATOM     18  O6  UNL     1      37.103  33.947  65.948  0.00  0.00    -0.503 OA
ATOM     19  H9  UNL     1      37.803  34.570  66.230  0.00  0.00    +0.292 HD
ENDBRANCH  15  18
BRANCH  14  20
ATOM     20  O7  UNL     1      37.373  36.178  64.435  0.00  0.00    -0.503 OA
ATOM     21  H10 UNL     1      37.309  37.023  63.957  0.00  0.00    +0.292 HD
ENDBRANCH  14  20
ENDBRANCH   1  17
BRANCH   8  22
ATOM     22  O3  UNL     1      28.002  30.959  65.267  0.00  0.00    -0.507 OA
ATOM     23  H6  UNL     1      27.384  31.381  64.648  0.00  0.00    +0.292 HD
ENDBRANCH   8  22
BRANCH   6  24
ATOM     24  O4  UNL     1      27.966  33.841  69.046  0.00  0.00    -0.506 OA
ATOM     25  H7  UNL     1      28.601  33.841  69.797  0.00  0.00    +0.292 HD
ENDBRANCH   6  24
BRANCH   2  26
ATOM     26  O5  UNL     1      32.533  36.353  68.492  0.00  0.00    -0.501 OA
ATOM     27  H8  UNL     1      33.451  36.363  68.148  0.00  0.00    +0.292 HD
ENDBRANCH   2  26
TORSDOF 6
ENDMDL
MODEL 3
REMARK VINA RESULT:    -8.527      1.690      7.104
REMARK INTER + INTRA:         -10.260
REMARK INTER:                 -10.480
REMARK INTRA:                   0.220
REMARK UNBOUND:                 0.011
REMARK  Name = data/mahkota_dewa_dn/results/docking/ligands/pdb/Quercetin.pdb
REMARK  6 active torsions:
REMARK  status: ('A' for Active; 'I' for Inactive)
REMARK    1  A    between atoms: C3_3  and  O7_22
REMARK    2  A    between atoms: C4_4  and  O6_21
REMARK    3  A    between atoms: C6_6  and  C7_7
REMARK    4  A    between atoms: C8_8  and  O5_20
REMARK    5  A    between atoms: C11_12  and  O4_19
REMARK    6  A    between atoms: C13_14  and  O3_18
REMARK                            x       y       z     vdW  Elec       q    Type
REMARK                         _______ _______ _______ _____ _____    ______ ____
ROOT
ATOM      1  C7  UNL     1      30.031  33.803  67.577  0.00  0.00    +0.181 A 
ATOM      2  C8  UNL     1      29.026  33.951  68.460  0.00  0.00    +0.208 A 
ATOM      3  C9  UNL     1      27.759  33.227  68.215  0.00  0.00    +0.238 A 
ATOM      4  O1  UNL     1      26.815  33.337  68.996  0.00  0.00    -0.283 OA
ATOM      5  C10 UNL     1      27.678  32.385  67.021  0.00  0.00    +0.109 A 
ATOM      6  C11 UNL     1      26.525  31.658  66.708  0.00  0.00    +0.135 A 
ATOM      7  C12 UNL     1      26.484  30.867  65.562  0.00  0.00    +0.091 A 
ATOM      8  C13 UNL     1      27.603  30.812  64.736  0.00  0.00    +0.124 A 
ATOM      9  C14 UNL     1      28.756  31.533  65.038  0.00  0.00    +0.092 A 
ATOM     10  C15 UNL     1      28.791  32.322  66.188  0.00  0.00    +0.147 A 
ATOM     11  O2  UNL     1      29.950  33.011  66.437  0.00  0.00    -0.451 OA
ENDROOT
BRANCH   1  17
ATOM     12  C1  UNL     1      32.515  33.944  67.169  0.00  0.00    +0.015 A 
ATOM     13  C2  UNL     1      33.739  34.613  67.283  0.00  0.00    +0.050 A 
ATOM     14  C3  UNL     1      33.781  35.837  67.935  0.00  0.00    +0.158 A 
ATOM     15  C4  UNL     1      32.620  36.391  68.464  0.00  0.00    +0.159 A 
ATOM     16  C5  UNL     1      31.402  35.733  68.356  0.00  0.00    +0.060 A 
ATOM     17  C6  UNL     1      31.334  34.488  67.709  0.00  0.00    +0.025 A 
BRANCH  15  18
ATOM     18  O6  UNL     1      32.670  37.598  69.100  0.00  0.00    -0.503 OA
ATOM     19  H9  UNL     1      32.100  37.483  69.888  0.00  0.00    +0.292 HD
ENDBRANCH  15  18
BRANCH  14  20
ATOM     20  O7  UNL     1      34.946  36.540  68.081  0.00  0.00    -0.503 OA
ATOM     21  H10 UNL     1      35.682  35.962  67.817  0.00  0.00    +0.292 HD
ENDBRANCH  14  20
ENDBRANCH   1  17
BRANCH   8  22
ATOM     22  O3  UNL     1      27.612  30.053  63.604  0.00  0.00    -0.507 OA
ATOM     23  H6  UNL     1      28.287  29.359  63.695  0.00  0.00    +0.292 HD
ENDBRANCH   8  22
BRANCH   6  24
ATOM     24  O4  UNL     1      25.398  31.677  67.483  0.00  0.00    -0.506 OA
ATOM     25  H7  UNL     1      25.636  32.024  68.372  0.00  0.00    +0.292 HD
ENDBRANCH   6  24
BRANCH   2  26
ATOM     26  O5  UNL     1      29.085  34.756  69.583  0.00  0.00    -0.501 OA
ATOM     27  H8  UNL     1      28.285  35.320  69.540  0.00  0.00    +0.292 HD
ENDBRANCH   2  26
TORSDOF 6
ENDMDL
MODEL 4
REMARK VINA RESULT:    -8.476      1.385      2.900
REMARK INTER + INTRA:         -10.199
REMARK INTER:                 -10.455
REMARK INTRA:                   0.256
REMARK UNBOUND:                 0.011
REMARK  Name = data/mahkota_dewa_dn/results/docking/ligands/pdb/Quercetin.pdb
REMARK  6 active torsions:
REMARK  status: ('A' for Active; 'I' for Inactive)
REMARK    1  A    between atoms: C3_3  and  O7_22
REMARK    2  A    between atoms: C4_4  and  O6_21
REMARK    3  A    between atoms: C6_6  and  C7_7
REMARK    4  A    between atoms: C8_8  and  O5_20
REMARK    5  A    between atoms: C11_12  and  O4_19
REMARK    6  A    between atoms: C13_14  and  O3_18
REMARK                            x       y       z     vdW  Elec       q    Type
REMARK                         _______ _______ _______ _____ _____    ______ ____
ROOT
ATOM      1  C7  UNL     1      28.852  33.509  67.532  0.00  0.00    +0.181 A 
ATOM      2  C8  UNL     1      29.480  34.336  68.389  0.00  0.00    +0.208 A 
ATOM      3  C9  UNL     1      30.773  34.929  67.979  0.00  0.00    +0.238 A 
ATOM      4  O1  UNL     1      31.379  35.687  68.734  0.00  0.00    -0.283 OA
ATOM      5  C10 UNL     1      31.290  34.579  66.656  0.00  0.00    +0.109 A 
ATOM      6  C11 UNL     1      32.499  35.093  66.178  0.00  0.00    +0.135 A 
ATOM      7  C12 UNL     1      32.962  34.737  64.913  0.00  0.00    +0.091 A 
ATOM      8  C13 UNL     1      32.204  33.866  64.135  0.00  0.00    +0.124 A 
ATOM      9  C14 UNL     1      30.999  33.348  64.602  0.00  0.00    +0.092 A 
ATOM     10  C15 UNL     1      30.541  33.709  65.869  0.00  0.00    +0.147 A 
ATOM     11  O2  UNL     1      29.349  33.169  66.279  0.00  0.00    -0.451 OA
ENDROOT
BRANCH   1  17
ATOM     12  C1  UNL     1      27.093  32.726  69.159  0.00  0.00    +0.015 A 
ATOM     13  C2  UNL     1      25.864  32.116  69.435  0.00  0.00    +0.050 A 
ATOM     14  C3  UNL     1      25.100  31.630  68.383  0.00  0.00    +0.158 A 
ATOM     15  C4  UNL     1      25.550  31.754  67.073  0.00  0.00    +0.159 A 
ATOM     16  C5  UNL     1      26.770  32.358  66.792  0.00  0.00    +0.060 A 
ATOM     17  C6  UNL     1      27.566  32.848  67.839  0.00  0.00    +0.025 A 
BRANCH  15  18
ATOM     18  O6  UNL     1      24.791  31.278  66.043  0.00  0.00    -0.503 OA
ATOM     19  H9  UNL     1      25.271  30.485  65.732  0.00  0.00    +0.292 HD
ENDBRANCH  15  18
BRANCH  14  20
ATOM     20  O7  UNL     1      23.891  31.023  68.586  0.00  0.00    -0.503 OA
ATOM     21  H10 UNL     1      23.209  31.551  68.135  0.00  0.00    +0.292 HD
ENDBRANCH  14  20
ENDBRANCH   1  17
BRANCH   8  22
ATOM     22  O3  UNL     1      32.614  33.488  62.891  0.00  0.00    -0.507 OA
ATOM     23  H6  UNL     1      31.878  33.606  62.267  0.00  0.00    +0.292 HD
ENDBRANCH   8  22
BRANCH   6  24
ATOM     24  O4  UNL     1      33.283  35.951  66.900  0.00  0.00    -0.506 OA
ATOM     25  H7  UNL     1      34.218  35.657  66.826  0.00  0.00    +0.292 HD
ENDBRANCH   6  24
BRANCH   2  26
ATOM     26  O5  UNL     1      29.009  34.661  69.648  0.00  0.00    -0.501 OA
ATOM     27  H8  UNL     1      28.724  33.812  70.046  0.00  0.00    +0.292 HD
ENDBRANCH   2  26
TORSDOF 6
ENDMDL
MODEL 5
REMARK VINA RESULT:    -8.379      3.519      6.820
REMARK INTER + INTRA:         -10.082
REMARK INTER:                 -10.360
REMARK INTRA:                   0.278
REMARK UNBOUND:                 0.011
REMARK  Name = data/mahkota_dewa_dn/results/docking/ligands/pdb/Quercetin.pdb
REMARK  6 active torsions:
REMARK  status: ('A' for Active; 'I' for Inactive)
REMARK    1  A    between atoms: C3_3  and  O7_22
REMARK    2  A    between atoms: C4_4  and  O6_21
REMARK    3  A    between atoms: C6_6  and  C7_7
REMARK    4  A    between atoms: C8_8  and  O5_20
REMARK    5  A    between atoms: C11_12  and  O4_19
REMARK    6  A    between atoms: C13_14  and  O3_18
REMARK                            x       y       z     vdW  Elec       q    Type
REMARK                         _______ _______ _______ _____ _____    ______ ____
ROOT
ATOM      1  C7  UNL     1      28.301  30.679  65.022  0.00  0.00    +0.181 A 
ATOM      2  C8  UNL     1      29.188  31.455  65.672  0.00  0.00    +0.208 A 
ATOM      3  C9  UNL     1      28.706  32.293  66.793  0.00  0.00    +0.238 A 
ATOM      4  O1  UNL     1      29.484  33.017  67.411  0.00  0.00    -0.283 OA
ATOM      5  C10 UNL     1      27.284  32.222  67.130  0.00  0.00    +0.109 A 
ATOM      6  C11 UNL     1      26.736  32.972  68.175  0.00  0.00    +0.135 A 
ATOM      7  C12 UNL     1      25.377  32.880  68.467  0.00  0.00    +0.091 A 
ATOM      8  C13 UNL     1      24.576  32.034  67.705  0.00  0.00    +0.124 A 
ATOM      9  C14 UNL     1      25.112  31.284  66.661  0.00  0.00    +0.092 A 
ATOM     10  C15 UNL     1      26.473  31.380  66.374  0.00  0.00    +0.147 A 
ATOM     11  O2  UNL     1      26.947  30.621  65.336  0.00  0.00    -0.451 OA
ENDROOT
BRANCH   1  17
ATOM     12  C1  UNL     1      29.886  29.963  63.197  0.00  0.00    +0.015 A 
ATOM     13  C2  UNL     1      30.227  29.125  62.130  0.00  0.00    +0.050 A 
ATOM     14  C3  UNL     1      29.343  28.126  61.747  0.00  0.00    +0.158 A 
ATOM     15  C4  UNL     1      28.136  27.961  62.419  0.00  0.00    +0.159 A 
ATOM     16  C5  UNL     1      27.790  28.790  63.479  0.00  0.00    +0.060 A 
ATOM     17  C6  UNL     1      28.664  29.814  63.879  0.00  0.00    +0.025 A 
BRANCH  15  18
ATOM     18  O6  UNL     1      27.274  26.973  62.039  0.00  0.00    -0.503 OA
ATOM     19  H9  UNL     1      26.472  27.128  62.578  0.00  0.00    +0.292 HD
ENDBRANCH  15  18
BRANCH  14  20
ATOM     20  O7  UNL     1      29.616  27.275  60.712  0.00  0.00    -0.503 OA
ATOM     21  H10 UNL     1      30.443  27.567  60.291  0.00  0.00    +0.292 HD
ENDBRANCH  14  20
ENDBRANCH   1  17
BRANCH   8  22
ATOM     22  O3  UNL     1      23.241  31.910  67.952  0.00  0.00    -0.507 OA
ATOM     23  H6  UNL     1      22.787  31.682  67.123  0.00  0.00    +0.292 HD
ENDBRANCH   8  22
BRANCH   6  24
ATOM     24  O4  UNL     1      27.477  33.818  68.955  0.00  0.00    -0.506 OA
ATOM     25  H7  UNL     1      27.632  34.649  68.453  0.00  0.00    +0.292 HD
ENDBRANCH   6  24
BRANCH   2  26
ATOM     26  O5  UNL     1      30.531  31.542  65.353  0.00  0.00    -0.501 OA
ATOM     27  H8  UNL     1      30.676  32.476  65.092  0.00  0.00    +0.292 HD
ENDBRANCH   2  26
TORSDOF 6
ENDMDL
MODEL 6
REMARK VINA RESULT:    -8.163      1.220      6.737
REMARK INTER + INTRA:          -9.822
REMARK INTER:                  -9.864
REMARK INTRA:                   0.043
REMARK UNBOUND:                 0.011
REMARK  Name = data/mahkota_dewa_dn/results/docking/ligands/pdb/Quercetin.pdb
REMARK  6 active torsions:
REMARK  status: ('A' for Active; 'I' for Inactive)
REMARK    1  A    between atoms: C3_3  and  O7_22
REMARK    2  A    between atoms: C4_4  and  O6_21
REMARK    3  A    between atoms: C6_6  and  C7_7
REMARK    4  A    between atoms: C8_8  and  O5_20
REMARK    5  A    between atoms: C11_12  and  O4_19
REMARK    6  A    between atoms: C13_14  and  O3_18
REMARK                            x       y       z     vdW  Elec       q    Type
REMARK                         _______ _______ _______ _____ _____    ______ ____
ROOT
ATOM      1  C7  UNL     1      30.397  33.938  67.194  0.00  0.00    +0.181 A 
ATOM      2  C8  UNL     1      30.105  33.415  65.989  0.00  0.00    +0.208 A 
ATOM      3  C9  UNL     1      28.833  32.676  65.829  0.00  0.00    +0.238 A 
ATOM      4  O1  UNL     1      28.530  32.181  64.744  0.00  0.00    -0.283 OA
ATOM      5  C10 UNL     1      27.963  32.561  67.000  0.00  0.00    +0.109 A 
ATOM      6  C11 UNL     1      26.739  31.887  66.946  0.00  0.00    +0.135 A 
ATOM      7  C12 UNL     1      25.937  31.797  68.081  0.00  0.00    +0.091 A 
ATOM      8  C13 UNL     1      26.371  32.386  69.265  0.00  0.00    +0.124 A 
ATOM      9  C14 UNL     1      27.588  33.059  69.330  0.00  0.00    +0.092 A 
ATOM     10  C15 UNL     1      28.386  33.146  68.189  0.00  0.00    +0.147 A 
ATOM     11  O2  UNL     1      29.575  33.819  68.309  0.00  0.00    -0.451 OA
ENDROOT
BRANCH   1  17
ATOM     12  C1  UNL     1      32.881  34.280  66.938  0.00  0.00    +0.015 A 
ATOM     13  C2  UNL     1      34.051  35.004  67.195  0.00  0.00    +0.050 A 
ATOM     14  C3  UNL     1      33.981  36.140  67.989  0.00  0.00    +0.158 A 
ATOM     15  C4  UNL     1      32.763  36.553  68.517  0.00  0.00    +0.159 A 
ATOM     16  C5  UNL     1      31.598  35.840  68.267  0.00  0.00    +0.060 A 
ATOM     17  C6  UNL     1      31.643  34.681  67.476  0.00  0.00    +0.025 A 
BRANCH  15  18
ATOM     18  O6  UNL     1      32.702  37.675  69.293  0.00  0.00    -0.503 OA
ATOM     19  H9  UNL     1      31.998  37.483  69.945  0.00  0.00    +0.292 HD
ENDBRANCH  15  18
BRANCH  14  20
ATOM     20  O7  UNL     1      35.088  36.891  68.278  0.00  0.00    -0.503 OA
ATOM     21  H10 UNL     1      35.820  36.283  68.479  0.00  0.00    +0.292 HD
ENDBRANCH  14  20
ENDBRANCH   1  17
BRANCH   8  22
ATOM     22  O3  UNL     1      25.621  32.326  70.403  0.00  0.00    -0.507 OA
ATOM     23  H6  UNL     1      24.681  32.392  70.165  0.00  0.00    +0.292 HD
ENDBRANCH   8  22
BRANCH   6  24
ATOM     24  O4  UNL     1      26.265  31.290  65.809  0.00  0.00    -0.506 OA
ATOM     25  H7  UNL     1      27.029  30.932  65.304  0.00  0.00    +0.292 HD
ENDBRANCH   6  24
BRANCH   2  26
ATOM     26  O5  UNL     1      30.926  33.503  64.879  0.00  0.00    -0.501 OA
ATOM     27  H8  UNL     1      31.840  33.487  65.231  0.00  0.00    +0.292 HD
ENDBRANCH   2  26
TORSDOF 6
ENDMDL
MODEL 7
REMARK VINA RESULT:    -8.067      1.767      7.071
REMARK INTER + INTRA:          -9.706
REMARK INTER:                  -9.902
REMARK INTRA:                   0.196
REMARK UNBOUND:                 0.011
REMARK  Name = data/mahkota_dewa_dn/results/docking/ligands/pdb/Quercetin.pdb
REMARK  6 active torsions:
REMARK  status: ('A' for Active; 'I' for Inactive)
REMARK    1  A    between atoms: C3_3  and  O7_22
REMARK    2  A    between atoms: C4_4  and  O6_21
REMARK    3  A    between atoms: C6_6  and  C7_7
REMARK    4  A    between atoms: C8_8  and  O5_20
REMARK    5  A    between atoms: C11_12  and  O4_19
REMARK    6  A    between atoms: C13_14  and  O3_18
REMARK                            x       y       z     vdW  Elec       q    Type
REMARK                         _______ _______ _______ _____ _____    ______ ____
ROOT
ATOM      1  C7  UNL     1      31.964  34.506  66.473  0.00  0.00    +0.181 A 
ATOM      2  C8  UNL     1      32.141  33.542  65.550  0.00  0.00    +0.208 A 
ATOM      3  C9  UNL     1      31.029  32.600  65.292  0.00  0.00    +0.238 A 
ATOM      4  O1  UNL     1      31.150  31.704  64.458  0.00  0.00    -0.283 OA
ATOM      5  C10 UNL     1      29.795  32.779  66.060  0.00  0.00    +0.109 A 
ATOM      6  C11 UNL     1      28.689  31.942  65.881  0.00  0.00    +0.135 A 
ATOM      7  C12 UNL     1      27.532  32.142  66.630  0.00  0.00    +0.091 A 
ATOM      8  C13 UNL     1      27.494  33.182  67.555  0.00  0.00    +0.124 A 
ATOM      9  C14 UNL     1      28.591  34.020  67.741  0.00  0.00    +0.092 A 
ATOM     10  C15 UNL     1      29.746  33.815  66.987  0.00  0.00    +0.147 A 
ATOM     11  O2  UNL     1      30.796  34.668  67.210  0.00  0.00    -0.451 OA
ENDROOT
BRANCH   1  17
ATOM     12  C1  UNL     1      34.041  35.828  65.932  0.00  0.00    +0.015 A 
ATOM     13  C2  UNL     1      35.011  36.778  66.269  0.00  0.00    +0.050 A 
ATOM     14  C3  UNL     1      34.944  37.400  67.508  0.00  0.00    +0.158 A 
ATOM     15  C4  UNL     1      33.923  37.085  68.397  0.00  0.00    +0.159 A 
ATOM     16  C5  UNL     1      32.956  36.142  68.069  0.00  0.00    +0.060 A 
ATOM     17  C6  UNL     1      33.008  35.491  66.826  0.00  0.00    +0.025 A 
BRANCH  15  18
ATOM     18  O6  UNL     1      33.861  37.705  69.612  0.00  0.00    -0.503 OA
ATOM     19  H9  UNL     1      33.497  37.026  70.215  0.00  0.00    +0.292 HD
ENDBRANCH  15  18
BRANCH  14  20
ATOM     20  O7  UNL     1      35.862  38.336  67.899  0.00  0.00    -0.503 OA
ATOM     21  H10 UNL     1      35.407  39.193  67.971  0.00  0.00    +0.292 HD
ENDBRANCH  14  20
ENDBRANCH   1  17
BRANCH   8  22
ATOM     22  O3  UNL     1      26.384  33.417  68.312  0.00  0.00    -0.507 OA
ATOM     23  H6  UNL     1      26.305  34.374  68.466  0.00  0.00    +0.292 HD
ENDBRANCH   8  22
BRANCH   6  24
ATOM     24  O4  UNL     1      28.673  30.906  64.988  0.00  0.00    -0.506 OA
ATOM     25  H7  UNL     1      28.905  30.078  65.466  0.00  0.00    +0.292 HD
ENDBRANCH   6  24
BRANCH   2  26
ATOM     26  O5  UNL     1      33.306  33.353  64.830  0.00  0.00    -0.501 OA
ATOM     27  H8  UNL     1      33.149  32.553  64.287  0.00  0.00    +0.292 HD
ENDBRANCH   2  26
TORSDOF 6
ENDMDL
MODEL 8
REMARK VINA RESULT:    -7.947      2.902      6.679
REMARK INTER + INTRA:          -9.561
REMARK INTER:                  -9.886
REMARK INTRA:                   0.324
REMARK UNBOUND:                 0.011
REMARK  Name = data/mahkota_dewa_dn/results/docking/ligands/pdb/Quercetin.pdb
REMARK  6 active torsions:
REMARK  status: ('A' for Active; 'I' for Inactive)
REMARK    1  A    between atoms: C3_3  and  O7_22
REMARK    2  A    between atoms: C4_4  and  O6_21
REMARK    3  A    between atoms: C6_6  and  C7_7
REMARK    4  A    between atoms: C8_8  and  O5_20
REMARK    5  A    between atoms: C11_12  and  O4_19
REMARK    6  A    between atoms: C13_14  and  O3_18
REMARK                            x       y       z     vdW  Elec       q    Type
REMARK                         _______ _______ _______ _____ _____    ______ ____
ROOT
ATOM      1  C7  UNL     1      29.543  32.314  66.019  0.00  0.00    +0.181 A 
ATOM      2  C8  UNL     1      28.236  32.047  66.201  0.00  0.00    +0.208 A 
ATOM      3  C9  UNL     1      27.620  30.962  65.403  0.00  0.00    +0.238 A 
ATOM      4  O1  UNL     1      26.428  30.688  65.538  0.00  0.00    -0.283 OA
ATOM      5  C10 UNL     1      28.477  30.241  64.462  0.00  0.00    +0.109 A 
ATOM      6  C11 UNL     1      27.987  29.198  63.670  0.00  0.00    +0.135 A 
ATOM      7  C12 UNL     1      28.833  28.533  62.784  0.00  0.00    +0.091 A 
ATOM      8  C13 UNL     1      30.167  28.923  62.700  0.00  0.00    +0.124 A 
ATOM      9  C14 UNL     1      30.664  29.961  63.484  0.00  0.00    +0.092 A 
ATOM     10  C15 UNL     1      29.812  30.621  64.370  0.00  0.00    +0.147 A 
ATOM     11  O2  UNL     1      30.354  31.636  65.116  0.00  0.00    -0.451 OA
ENDROOT
BRANCH   1  17
ATOM     12  C1  UNL     1      31.473  33.915  66.270  0.00  0.00    +0.015 A 
ATOM     13  C2  UNL     1      32.133  34.941  66.957  0.00  0.00    +0.050 A 
ATOM     14  C3  UNL     1      31.571  35.444  68.122  0.00  0.00    +0.158 A 
ATOM     15  C4  UNL     1      30.367  34.934  68.596  0.00  0.00    +0.159 A 
ATOM     16  C5  UNL     1      29.707  33.915  67.921  0.00  0.00    +0.060 A 
ATOM     17  C6  UNL     1      30.260  33.383  66.745  0.00  0.00    +0.025 A 
BRANCH  15  18
ATOM     18  O6  UNL     1      29.818  35.437  69.741  0.00  0.00    -0.503 OA
ATOM     19  H9  UNL     1      30.279  34.963  70.462  0.00  0.00    +0.292 HD
ENDBRANCH  15  18
BRANCH  14  20
ATOM     20  O7  UNL     1      32.165  36.445  68.839  0.00  0.00    -0.503 OA
ATOM     21  H10 UNL     1      33.100  36.491  68.575  0.00  0.00    +0.292 HD
ENDBRANCH  14  20
ENDBRANCH   1  17
BRANCH   8  22
ATOM     22  O3  UNL     1      31.033  28.303  61.849  0.00  0.00    -0.507 OA
ATOM     23  H6  UNL     1      31.762  28.912  61.642  0.00  0.00    +0.292 HD
ENDBRANCH   8  22
BRANCH   6  24
ATOM     24  O4  UNL     1      26.687  28.776  63.712  0.00  0.00    -0.506 OA
ATOM     25  H7  UNL     1      26.222  29.117  62.916  0.00  0.00    +0.292 HD
ENDBRANCH   6  24
BRANCH   2  26
ATOM     26  O5  UNL     1      27.412  32.731  67.075  0.00  0.00    -0.501 OA
ATOM     27  H8  UNL     1      26.499  32.501  66.805  0.00  0.00    +0.292 HD
ENDBRANCH   2  26
TORSDOF 6
ENDMDL
MODEL 9
REMARK VINA RESULT:    -7.922      1.584      2.285
REMARK INTER + INTRA:          -9.531
REMARK INTER:                  -9.627
REMARK INTRA:                   0.095
REMARK UNBOUND:                 0.011
REMARK  Name = data/mahkota_dewa_dn/results/docking/ligands/pdb/Quercetin.pdb
REMARK  6 active torsions:
REMARK  status: ('A' for Active; 'I' for Inactive)
REMARK    1  A    between atoms: C3_3  and  O7_22
REMARK    2  A    between atoms: C4_4  and  O6_21
REMARK    3  A    between atoms: C6_6  and  C7_7
REMARK    4  A    between atoms: C8_8  and  O5_20
REMARK    5  A    between atoms: C11_12  and  O4_19
REMARK    6  A    between atoms: C13_14  and  O3_18
REMARK                            x       y       z     vdW  Elec       q    Type
REMARK                         _______ _______ _______ _____ _____    ______ ____
ROOT
ATOM      1  C7  UNL     1      28.632  32.254  66.342  0.00  0.00    +0.181 A 
ATOM      2  C8  UNL     1      29.006  31.376  65.394  0.00  0.00    +0.208 A 
ATOM      3  C9  UNL     1      30.290  31.598  64.692  0.00  0.00    +0.238 A 
ATOM      4  O1  UNL     1      30.667  30.819  63.818  0.00  0.00    -0.283 OA
ATOM      5  C10 UNL     1      31.081  32.767  65.079  0.00  0.00    +0.109 A 
ATOM      6  C11 UNL     1      32.310  33.057  64.477  0.00  0.00    +0.135 A 
ATOM      7  C12 UNL     1      33.035  34.179  64.870  0.00  0.00    +0.091 A 
ATOM      8  C13 UNL     1      32.521  35.004  65.867  0.00  0.00    +0.124 A 
ATOM      9  C14 UNL     1      31.297  34.724  66.472  0.00  0.00    +0.092 A 
ATOM     10  C15 UNL     1      30.576  33.598  66.074  0.00  0.00    +0.147 A 
ATOM     11  O2  UNL     1      29.379  33.371  66.702  0.00  0.00    -0.451 OA
ENDROOT
BRANCH   1  17
ATOM     12  C1  UNL     1      26.192  31.643  66.502  0.00  0.00    +0.015 A 
ATOM     13  C2  UNL     1      25.004  31.524  67.232  0.00  0.00    +0.050 A 
ATOM     14  C3  UNL     1      24.992  31.900  68.568  0.00  0.00    +0.158 A 
ATOM     15  C4  UNL     1      26.147  32.386  69.171  0.00  0.00    +0.159 A 
ATOM     16  C5  UNL     1      27.330  32.508  68.452  0.00  0.00    +0.060 A 
ATOM     17  C6  UNL     1      27.365  32.144  67.096  0.00  0.00    +0.025 A 
BRANCH  15  18
ATOM     18  O6  UNL     1      26.128  32.750  70.486  0.00  0.00    -0.503 OA
ATOM     19  H9  UNL     1      25.592  32.059  70.924  0.00  0.00    +0.292 HD
ENDBRANCH  15  18
BRANCH  14  20
ATOM     20  O7  UNL     1      23.864  31.809  69.336  0.00  0.00    -0.503 OA
ATOM     21  H10 UNL     1      23.668  30.866  69.473  0.00  0.00    +0.292 HD
ENDBRANCH  14  20
ENDBRANCH   1  17
BRANCH   8  22
ATOM     22  O3  UNL     1      33.193  36.113  66.286  0.00  0.00    -0.507 OA
ATOM     23  H6  UNL     1      33.670  35.902  67.106  0.00  0.00    +0.292 HD
ENDBRANCH   8  22
BRANCH   6  24
ATOM     24  O4  UNL     1      32.861  32.282  63.494  0.00  0.00    -0.506 OA
ATOM     25  H7  UNL     1      32.606  32.657  62.621  0.00  0.00    +0.292 HD
ENDBRANCH   6  24
BRANCH   2  26
ATOM     26  O5  UNL     1      28.260  30.277  65.009  0.00  0.00    -0.501 OA
ATOM     27  H8  UNL     1      28.791  29.497  65.274  0.00  0.00    +0.292 HD
ENDBRANCH   2  26
TORSDOF 6
ENDMDL
