MODEL 1
REMARK VINA RESULT:    -9.045      0.000      0.000
REMARK INTER + INTRA:         -10.917
REMARK INTER:                 -10.631
REMARK INTRA:                  -0.286
REMARK UNBOUND:                -0.286
REMARK  Name = data/mahkota_dewa_dn/results/docking/ligands/pdb/Luteolin.pdb
REMARK  5 active torsions:
REMARK  status: ('A' for Active; 'I' for Inactive)
REMARK    1  A    between atoms: C3_3  and  O6_21
REMARK    2  A    between atoms: C4_4  and  O5_20
REMARK    3  A    between atoms: C6_6  and  C7_7
REMARK    4  A    between atoms: C11_12  and  O4_19
REMARK    5  A    between atoms: C13_14  and  O3_18
REMARK                            x       y       z     vdW  Elec       q    Type
REMARK                         _______ _______ _______ _____ _____    ______ ____
ROOT
ATOM      1  C7  UNL     1      28.854  33.056  67.386  0.00  0.00    +0.139 A 
ATOM      2  C8  UNL     1      29.624  32.425  66.488  0.00  0.00    +0.098 A 
ATOM      3  C9  UNL     1      30.977  32.936  66.226  0.00  0.00    +0.197 A 
ATOM      4  O1  UNL     1      31.717  32.403  65.406  0.00  0.00    -0.287 OA
ATOM      5  C10 UNL     1      31.405  34.115  66.983  0.00  0.00    +0.105 A 
ATOM      6  C11 UNL     1      32.673  34.681  66.810  0.00  0.00    +0.135 A 
ATOM      7  C12 UNL     1      33.048  35.802  67.547  0.00  0.00    +0.091 A 
ATOM      8  C13 UNL     1      32.147  36.350  68.456  0.00  0.00    +0.124 A 
ATOM      9  C14 UNL     1      30.882  35.796  68.636  0.00  0.00    +0.092 A 
ATOM     10  C15 UNL     1      30.511  34.674  67.895  0.00  0.00    +0.146 A 
ATOM     11  O2  UNL     1      29.254  34.168  68.112  0.00  0.00    -0.454 OA
ENDROOT
BRANCH   1  17
ATOM     12  C1  UNL     1      27.032  32.509  69.032  0.00  0.00    +0.015 A 
ATOM     13  C2  UNL     1      25.741  32.054  69.324  0.00  0.00    +0.050 A 
ATOM     14  C3  UNL     1      24.906  31.674  68.283  0.00  0.00    +0.158 A 
ATOM     15  C4  UNL     1      25.353  31.741  66.967  0.00  0.00    +0.159 A 
ATOM     16  C5  UNL     1      26.633  32.188  66.668  0.00  0.00    +0.060 A 
ATOM     17  C6  UNL     1      27.491  32.588  67.703  0.00  0.00    +0.021 A 
BRANCH  15  18
ATOM     18  O5  UNL     1      24.525  31.363  65.947  0.00  0.00    -0.503 OA
ATOM     19  H9  UNL     1      23.734  31.001  66.393  0.00  0.00    +0.292 HD
ENDBRANCH  15  18
BRANCH  14  20
ATOM     20  O6  UNL     1      23.635  31.223  68.501  0.00  0.00    -0.503 OA
ATOM     21  H10 UNL     1      23.037  31.990  68.514  0.00  0.00    +0.292 HD
ENDBRANCH  14  20
ENDBRANCH   1  17
BRANCH   8  22
ATOM     22  O3  UNL     1      32.468  37.446  69.199  0.00  0.00    -0.507 OA
ATOM     23  H7  UNL     1      33.364  37.330  69.559  0.00  0.00    +0.292 HD
ENDBRANCH   8  22
BRANCH   6  24
ATOM     24  O4  UNL     1      33.598  34.183  65.932  0.00  0.00    -0.506 OA
ATOM     25  H8  UNL     1      33.401  33.228  65.789  0.00  0.00    +0.292 HD
ENDBRANCH   6  24
TORSDOF 5
ENDMDL
MODEL 2
REMARK VINA RESULT:    -8.867      3.722      6.775
REMARK INTER + INTRA:         -10.709
REMARK INTER:                 -10.383
REMARK INTRA:                  -0.326
REMARK UNBOUND:                -0.286
REMARK  Name = data/mahkota_dewa_dn/results/docking/ligands/pdb/Luteolin.pdb
REMARK  5 active torsions:
REMARK  status: ('A' for Active; 'I' for Inactive)
REMARK    1  A    between atoms: C3_3  and  O6_21
REMARK    2  A    between atoms: C4_4  and  O5_20
REMARK    3  A    between atoms: C6_6  and  C7_7
REMARK    4  A    between atoms: C11_12  and  O4_19
REMARK    5  A    between atoms: C13_14  and  O3_18
REMARK                            x       y       z     vdW  Elec       q    Type
REMARK                         _______ _______ _______ _____ _____    ______ ____
ROOT
ATOM      1  C7  UNL     1      28.226  30.643  64.984  0.00  0.00    +0.139 A 
ATOM      2  C8  UNL     1      29.122  31.414  65.617  0.00  0.00    +0.098 A 
ATOM      3  C9  UNL     1      28.672  32.266  66.726  0.00  0.00    +0.197 A 
ATOM      4  O1  UNL     1      29.448  32.998  67.331  0.00  0.00    -0.287 OA
ATOM      5  C10 UNL     1      27.250  32.208  67.079  0.00  0.00    +0.105 A 
ATOM      6  C11 UNL     1      26.718  32.978  68.119  0.00  0.00    +0.135 A 
ATOM      7  C12 UNL     1      25.362  32.898  68.429  0.00  0.00    +0.091 A 
ATOM      8  C13 UNL     1      24.546  32.044  67.691  0.00  0.00    +0.124 A 
ATOM      9  C14 UNL     1      25.065  31.274  66.653  0.00  0.00    +0.092 A 
ATOM     10  C15 UNL     1      26.423  31.358  66.347  0.00  0.00    +0.146 A 
ATOM     11  O2  UNL     1      26.881  30.577  65.316  0.00  0.00    -0.454 OA
ENDROOT
BRANCH   1  17
ATOM     12  C1  UNL     1      29.848  29.912  63.206  0.00  0.00    +0.015 A 
ATOM     13  C2  UNL     1      30.206  29.074  62.143  0.00  0.00    +0.050 A 
ATOM     14  C3  UNL     1      29.325  28.080  61.739  0.00  0.00    +0.158 A 
ATOM     15  C4  UNL     1      28.102  27.925  62.383  0.00  0.00    +0.159 A 
ATOM     16  C5  UNL     1      27.738  28.753  63.437  0.00  0.00    +0.060 A 
ATOM     17  C6  UNL     1      28.616  29.757  63.869  0.00  0.00    +0.021 A 
BRANCH  15  18
ATOM     18  O5  UNL     1      27.239  26.945  61.979  0.00  0.00    -0.503 OA
ATOM     19  H9  UNL     1      27.807  26.165  61.827  0.00  0.00    +0.292 HD
ENDBRANCH  15  18
BRANCH  14  20
ATOM     20  O6  UNL     1      29.615  27.230  60.709  0.00  0.00    -0.503 OA
ATOM     21  H10 UNL     1      29.758  26.341  61.079  0.00  0.00    +0.292 HD
ENDBRANCH  14  20
ENDBRANCH   1  17
BRANCH   8  22
ATOM     22  O3  UNL     1      23.213  31.932  67.956  0.00  0.00    -0.507 OA
ATOM     23  H7  UNL     1      22.910  32.748  68.389  0.00  0.00    +0.292 HD
ENDBRANCH   8  22
BRANCH   6  24
ATOM     24  O4  UNL     1      27.474  33.832  68.876  0.00  0.00    -0.506 OA
ATOM     25  H8  UNL     1      28.420  33.582  68.766  0.00  0.00    +0.292 HD
ENDBRANCH   6  24
TORSDOF 5
ENDMDL
MODEL 3
REMARK VINA RESULT:    -8.717      2.029      7.191
REMARK INTER + INTRA:         -10.532
REMARK INTER:                 -10.229
REMARK INTRA:                  -0.303
REMARK UNBOUND:                -0.286
REMARK  Name = data/mahkota_dewa_dn/results/docking/ligands/pdb/Luteolin.pdb
REMARK  5 active torsions:
REMARK  status: ('A' for Active; 'I' for Inactive)
REMARK    1  A    between atoms: C3_3  and  O6_21
REMARK    2  A    between atoms: C4_4  and  O5_20
REMARK    3  A    between atoms: C6_6  and  C7_7
REMARK    4  A    between atoms: C11_12  and  O4_19
REMARK    5  A    between atoms: C13_14  and  O3_18
REMARK                            x       y       z     vdW  Elec       q    Type
REMARK                         _______ _______ _______ _____ _____    ______ ____
ROOT
ATOM      1  C7  UNL     1      29.883  33.386  66.925  0.00  0.00    +0.139 A 
ATOM      2  C8  UNL     1      28.684  33.587  67.490  0.00  0.00    +0.098 A 
ATOM      3  C9  UNL     1      27.546  32.763  67.060  0.00  0.00    +0.197 A 
ATOM      4  O1  UNL     1      26.426  32.913  67.537  0.00  0.00    -0.287 OA
ATOM      5  C10 UNL     1      27.805  31.750  66.032  0.00  0.00    +0.105 A 
ATOM      6  C11 UNL     1      26.792  30.912  65.553  0.00  0.00    +0.135 A 
ATOM      7  C12 UNL     1      27.072  29.960  64.575  0.00  0.00    +0.091 A 
ATOM      8  C13 UNL     1      28.370  29.856  64.083  0.00  0.00    +0.124 A 
ATOM      9  C14 UNL     1      29.386  30.684  64.551  0.00  0.00    +0.092 A 
ATOM     10  C15 UNL     1      29.100  31.636  65.530  0.00  0.00    +0.146 A 
ATOM     11  O2  UNL     1      30.137  32.426  65.957  0.00  0.00    -0.454 OA
ENDROOT
BRANCH   1  17
ATOM     12  C1  UNL     1      32.371  33.751  66.995  0.00  0.00    +0.015 A 
ATOM     13  C2  UNL     1      33.489  34.498  67.381  0.00  0.00    +0.050 A 
ATOM     14  C3  UNL     1      33.304  35.672  68.098  0.00  0.00    +0.158 A 
ATOM     15  C4  UNL     1      32.020  36.094  68.429  0.00  0.00    +0.159 A 
ATOM     16  C5  UNL     1      30.905  35.357  68.052  0.00  0.00    +0.060 A 
ATOM     17  C6  UNL     1      31.067  34.174  67.319  0.00  0.00    +0.021 A 
BRANCH  15  18
ATOM     18  O5  UNL     1      31.845  37.250  69.137  0.00  0.00    -0.503 OA
ATOM     19  H9  UNL     1      32.086  37.961  68.510  0.00  0.00    +0.292 HD
ENDBRANCH  15  18
BRANCH  14  20
ATOM     20  O6  UNL     1      34.353  36.447  68.503  0.00  0.00    -0.503 OA
ATOM     21  H10 UNL     1      34.068  37.377  68.493  0.00  0.00    +0.292 HD
ENDBRANCH  14  20
ENDBRANCH   1  17
BRANCH   8  22
ATOM     22  O3  UNL     1      28.693  28.940  63.125  0.00  0.00    -0.507 OA
ATOM     23  H7  UNL     1      28.464  28.052  63.450  0.00  0.00    +0.292 HD
ENDBRANCH   8  22
BRANCH   6  24
ATOM     24  O4  UNL     1      25.500  30.973  66.002  0.00  0.00    -0.506 OA
ATOM     25  H8  UNL     1      25.386  31.819  66.492  0.00  0.00    +0.292 HD
ENDBRANCH   6  24
TORSDOF 5
ENDMDL
MODEL 4
REMARK VINA RESULT:    -8.418      1.912      3.582
REMARK INTER + INTRA:         -10.181
REMARK INTER:                  -9.876
REMARK INTRA:                  -0.305
REMARK UNBOUND:                -0.286
REMARK  Name = data/mahkota_dewa_dn/results/docking/ligands/pdb/Luteolin.pdb
REMARK  5 active torsions:
REMARK  status: ('A' for Active; 'I' for Inactive)
REMARK    1  A    between atoms: C3_3  and  O6_21
REMARK    2  A    between atoms: C4_4  and  O5_20
REMARK    3  A    between atoms: C6_6  and  C7_7
REMARK    4  A    between atoms: C11_12  and  O4_19
REMARK    5  A    between atoms: C13_14  and  O3_18
REMARK                            x       y       z     vdW  Elec       q    Type
REMARK                         _______ _______ _______ _____ _____    ______ ____
ROOT
ATOM      1  C7  UNL     1      30.159  33.180  66.486  0.00  0.00    +0.139 A 
ATOM      2  C8  UNL     1      29.711  33.983  67.462  0.00  0.00    +0.098 A 
ATOM      3  C9  UNL     1      30.611  35.008  68.010  0.00  0.00    +0.197 A 
ATOM      4  O1  UNL     1      30.255  35.761  68.911  0.00  0.00    -0.287 OA
ATOM      5  C10 UNL     1      31.957  35.093  67.436  0.00  0.00    +0.105 A 
ATOM      6  C11 UNL     1      32.891  36.034  67.885  0.00  0.00    +0.135 A 
ATOM      7  C12 UNL     1      34.162  36.087  67.318  0.00  0.00    +0.091 A 
ATOM      8  C13 UNL     1      34.489  35.193  66.301  0.00  0.00    +0.124 A 
ATOM      9  C14 UNL     1      33.568  34.253  65.847  0.00  0.00    +0.092 A 
ATOM     10  C15 UNL     1      32.298  34.204  66.419  0.00  0.00    +0.146 A 
ATOM     11  O2  UNL     1      31.429  33.258  65.934  0.00  0.00    -0.454 OA
ENDROOT
BRANCH   1  17
ATOM     12  C1  UNL     1      29.821  31.203  64.970  0.00  0.00    +0.015 A 
ATOM     13  C2  UNL     1      29.000  30.224  64.398  0.00  0.00    +0.050 A 
ATOM     14  C3  UNL     1      27.656  30.182  64.741  0.00  0.00    +0.158 A 
ATOM     15  C4  UNL     1      27.134  31.107  65.641  0.00  0.00    +0.159 A 
ATOM     16  C5  UNL     1      27.941  32.083  66.211  0.00  0.00    +0.060 A 
ATOM     17  C6  UNL     1      29.304  32.138  65.887  0.00  0.00    +0.021 A 
BRANCH  15  18
ATOM     18  O5  UNL     1      25.809  31.061  65.973  0.00  0.00    -0.503 OA
ATOM     19  H9  UNL     1      25.617  30.109  66.084  0.00  0.00    +0.292 HD
ENDBRANCH  15  18
BRANCH  14  20
ATOM     20  O6  UNL     1      26.803  29.251  64.219  0.00  0.00    -0.503 OA
ATOM     21  H10 UNL     1      27.074  29.068  63.303  0.00  0.00    +0.292 HD
ENDBRANCH  14  20
ENDBRANCH   1  17
BRANCH   8  22
ATOM     22  O3  UNL     1      35.720  35.207  65.715  0.00  0.00    -0.507 OA
ATOM     23  H7  UNL     1      36.378  35.489  66.373  0.00  0.00    +0.292 HD
ENDBRANCH   8  22
BRANCH   6  24
ATOM     24  O4  UNL     1      32.622  36.934  68.880  0.00  0.00    -0.506 OA
ATOM     25  H8  UNL     1      33.335  37.614  68.880  0.00  0.00    +0.292 HD
ENDBRANCH   6  24
TORSDOF 5
ENDMDL
MODEL 5
REMARK VINA RESULT:    -8.323      2.977      6.966
REMARK INTER + INTRA:         -10.068
REMARK INTER:                  -9.765
REMARK INTRA:                  -0.304
REMARK UNBOUND:                -0.286
REMARK  Name = data/mahkota_dewa_dn/results/docking/ligands/pdb/Luteolin.pdb
REMARK  5 active torsions:
REMARK  status: ('A' for Active; 'I' for Inactive)
REMARK    1  A    between atoms: C3_3  and  O6_21
REMARK    2  A    between atoms: C4_4  and  O5_20
REMARK    3  A    between atoms: C6_6  and  C7_7
REMARK    4  A    between atoms: C11_12  and  O4_19
REMARK    5  A    between atoms: C13_14  and  O3_18
REMARK                            x       y       z     vdW  Elec       q    Type
REMARK                         _______ _______ _______ _____ _____    ______ ____
ROOT
ATOM      1  C7  UNL     1      28.434  31.526  65.862  0.00  0.00    +0.139 A 
ATOM      2  C8  UNL     1      29.033  32.232  66.832  0.00  0.00    +0.098 A 
ATOM      3  C9  UNL     1      28.213  32.789  67.917  0.00  0.00    +0.197 A 
ATOM      4  O1  UNL     1      28.709  33.451  68.822  0.00  0.00    -0.287 OA
ATOM      5  C10 UNL     1      26.772  32.522  67.872  0.00  0.00    +0.105 A 
ATOM      6  C11 UNL     1      25.903  33.005  68.856  0.00  0.00    +0.135 A 
ATOM      7  C12 UNL     1      24.539  32.733  68.783  0.00  0.00    +0.091 A 
ATOM      8  C13 UNL     1      24.054  31.976  67.720  0.00  0.00    +0.124 A 
ATOM      9  C14 UNL     1      24.910  31.491  66.734  0.00  0.00    +0.092 A 
ATOM     10  C15 UNL     1      26.274  31.766  66.812  0.00  0.00    +0.146 A 
ATOM     11  O2  UNL     1      27.073  31.264  65.816  0.00  0.00    -0.454 OA
ENDROOT
BRANCH   1  17
ATOM     12  C1  UNL     1      28.636  29.952  63.910  0.00  0.00    +0.015 A 
ATOM     13  C2  UNL     1      29.373  29.386  62.864  0.00  0.00    +0.050 A 
ATOM     14  C3  UNL     1      30.682  29.800  62.657  0.00  0.00    +0.158 A 
ATOM     15  C4  UNL     1      31.251  30.762  63.486  0.00  0.00    +0.159 A 
ATOM     16  C5  UNL     1      30.527  31.327  64.528  0.00  0.00    +0.060 A 
ATOM     17  C6  UNL     1      29.200  30.932  64.749  0.00  0.00    +0.021 A 
BRANCH  15  18
ATOM     18  O5  UNL     1      32.541  31.163  63.278  0.00  0.00    -0.503 OA
ATOM     19  H9  UNL     1      32.533  32.122  63.465  0.00  0.00    +0.292 HD
ENDBRANCH  15  18
BRANCH  14  20
ATOM     20  O6  UNL     1      31.454  29.288  61.653  0.00  0.00    -0.503 OA
ATOM     21  H10 UNL     1      32.140  29.941  61.433  0.00  0.00    +0.292 HD
ENDBRANCH  14  20
ENDBRANCH   1  17
BRANCH   8  22
ATOM     22  O3  UNL     1      22.727  31.684  67.605  0.00  0.00    -0.507 OA
ATOM     23  H7  UNL     1      22.623  30.719  67.548  0.00  0.00    +0.292 HD
ENDBRANCH   8  22
BRANCH   6  24
ATOM     24  O4  UNL     1      26.327  33.753  69.922  0.00  0.00    -0.506 OA
ATOM     25  H8  UNL     1      25.538  34.182  70.328  0.00  0.00    +0.292 HD
ENDBRANCH   6  24
TORSDOF 5
ENDMDL
MODEL 6
REMARK VINA RESULT:    -8.271      1.353      2.078
REMARK INTER + INTRA:         -10.008
REMARK INTER:                  -9.679
REMARK INTRA:                  -0.329
REMARK UNBOUND:                -0.286
REMARK  Name = data/mahkota_dewa_dn/results/docking/ligands/pdb/Luteolin.pdb
REMARK  5 active torsions:
REMARK  status: ('A' for Active; 'I' for Inactive)
REMARK    1  A    between atoms: C3_3  and  O6_21
REMARK    2  A    between atoms: C4_4  and  O5_20
REMARK    3  A    between atoms: C6_6  and  C7_7
REMARK    4  A    between atoms: C11_12  and  O4_19
REMARK    5  A    between atoms: C13_14  and  O3_18
REMARK                            x       y       z     vdW  Elec       q    Type
REMARK                         _______ _______ _______ _____ _____    ______ ____
ROOT
ATOM      1  C7  UNL     1      30.146  33.300  66.227  0.00  0.00    +0.139 A 
ATOM      2  C8  UNL     1      31.050  32.945  65.303  0.00  0.00    +0.098 A 
ATOM      3  C9  UNL     1      32.359  33.613  65.293  0.00  0.00    +0.197 A 
ATOM      4  O1  UNL     1      33.218  33.334  64.463  0.00  0.00    -0.287 OA
ATOM      5  C10 UNL     1      32.596  34.634  66.318  0.00  0.00    +0.105 A 
ATOM      6  C11 UNL     1      33.808  35.329  66.398  0.00  0.00    +0.135 A 
ATOM      7  C12 UNL     1      34.001  36.293  67.385  0.00  0.00    +0.091 A 
ATOM      8  C13 UNL     1      32.974  36.554  68.288  0.00  0.00    +0.124 A 
ATOM      9  C14 UNL     1      31.764  35.869  68.218  0.00  0.00    +0.092 A 
ATOM     10  C15 UNL     1      31.576  34.905  67.228  0.00  0.00    +0.146 A 
ATOM     11  O2  UNL     1      30.365  34.259  67.204  0.00  0.00    -0.454 OA
ENDROOT
BRANCH   1  17
ATOM     12  C1  UNL     1      28.450  31.634  65.407  0.00  0.00    +0.015 A 
ATOM     13  C2  UNL     1      27.184  31.040  65.473  0.00  0.00    +0.050 A 
ATOM     14  C3  UNL     1      26.281  31.478  66.432  0.00  0.00    +0.158 A 
ATOM     15  C4  UNL     1      26.632  32.498  67.311  0.00  0.00    +0.159 A 
ATOM     16  C5  UNL     1      27.885  33.094  67.251  0.00  0.00    +0.060 A 
ATOM     17  C6  UNL     1      28.818  32.661  66.297  0.00  0.00    +0.021 A 
BRANCH  15  18
ATOM     18  O5  UNL     1      25.737  32.925  68.252  0.00  0.00    -0.503 OA
ATOM     19  H9  UNL     1      26.222  32.861  69.099  0.00  0.00    +0.292 HD
ENDBRANCH  15  18
BRANCH  14  20
ATOM     20  O6  UNL     1      25.031  30.939  66.550  0.00  0.00    -0.503 OA
ATOM     21  H10 UNL     1      24.939  30.234  65.886  0.00  0.00    +0.292 HD
ENDBRANCH  14  20
ENDBRANCH   1  17
BRANCH   8  22
ATOM     22  O3  UNL     1      33.115  37.488  69.271  0.00  0.00    -0.507 OA
ATOM     23  H7  UNL     1      33.423  37.047  70.081  0.00  0.00    +0.292 HD
ENDBRANCH   8  22
BRANCH   6  24
ATOM     24  O4  UNL     1      34.850  35.112  65.537  0.00  0.00    -0.506 OA
ATOM     25  H8  UNL     1      34.553  35.353  64.630  0.00  0.00    +0.292 HD
ENDBRANCH   6  24
TORSDOF 5
ENDMDL
MODEL 7
REMARK VINA RESULT:    -8.265      2.962      7.012
REMARK INTER + INTRA:         -10.001
REMARK INTER:                  -9.698
REMARK INTRA:                  -0.303
REMARK UNBOUND:                -0.286
REMARK  Name = data/mahkota_dewa_dn/results/docking/ligands/pdb/Luteolin.pdb
REMARK  5 active torsions:
REMARK  status: ('A' for Active; 'I' for Inactive)
REMARK    1  A    between atoms: C3_3  and  O6_21
REMARK    2  A    between atoms: C4_4  and  O5_20
REMARK    3  A    between atoms: C6_6  and  C7_7
REMARK    4  A    between atoms: C11_12  and  O4_19
REMARK    5  A    between atoms: C13_14  and  O3_18
REMARK                            x       y       z     vdW  Elec       q    Type
REMARK                         _______ _______ _______ _____ _____    ______ ____
ROOT
ATOM      1  C7  UNL     1      29.618  32.310  65.916  0.00  0.00    +0.139 A 
ATOM      2  C8  UNL     1      28.326  32.034  66.149  0.00  0.00    +0.098 A 
ATOM      3  C9  UNL     1      27.685  30.943  65.401  0.00  0.00    +0.197 A 
ATOM      4  O1  UNL     1      26.504  30.657  65.567  0.00  0.00    -0.287 OA
ATOM      5  C10 UNL     1      28.517  30.212  64.440  0.00  0.00    +0.105 A 
ATOM      6  C11 UNL     1      28.005  29.156  63.678  0.00  0.00    +0.135 A 
ATOM      7  C12 UNL     1      28.823  28.481  62.774  0.00  0.00    +0.091 A 
ATOM      8  C13 UNL     1      30.153  28.871  62.641  0.00  0.00    +0.124 A 
ATOM      9  C14 UNL     1      30.673  29.920  63.395  0.00  0.00    +0.092 A 
ATOM     10  C15 UNL     1      29.850  30.593  64.297  0.00  0.00    +0.146 A 
ATOM     11  O2  UNL     1      30.413  31.618  65.014  0.00  0.00    -0.454 OA
ENDROOT
BRANCH   1  17
ATOM     12  C1  UNL     1      31.576  33.861  66.208  0.00  0.00    +0.015 A 
ATOM     13  C2  UNL     1      32.242  34.874  66.907  0.00  0.00    +0.050 A 
ATOM     14  C3  UNL     1      31.656  35.411  68.045  0.00  0.00    +0.158 A 
ATOM     15  C4  UNL     1      30.421  34.942  68.483  0.00  0.00    +0.159 A 
ATOM     16  C5  UNL     1      29.754  33.935  67.798  0.00  0.00    +0.060 A 
ATOM     17  C6  UNL     1      30.323  33.385  66.640  0.00  0.00    +0.021 A 
BRANCH  15  18
ATOM     18  O5  UNL     1      29.850  35.474  69.606  0.00  0.00    -0.503 OA
ATOM     19  H9  UNL     1      30.212  34.941  70.341  0.00  0.00    +0.292 HD
ENDBRANCH  15  18
BRANCH  14  20
ATOM     20  O6  UNL     1      32.254  36.402  68.770  0.00  0.00    -0.503 OA
ATOM     21  H10 UNL     1      33.203  36.198  68.840  0.00  0.00    +0.292 HD
ENDBRANCH  14  20
ENDBRANCH   1  17
BRANCH   8  22
ATOM     22  O3  UNL     1      30.992  28.242  61.770  0.00  0.00    -0.507 OA
ATOM     23  H7  UNL     1      31.292  27.408  62.171  0.00  0.00    +0.292 HD
ENDBRANCH   8  22
BRANCH   6  24
ATOM     24  O4  UNL     1      26.707  28.732  63.769  0.00  0.00    -0.506 OA
ATOM     25  H8  UNL     1      26.712  27.758  63.913  0.00  0.00    +0.292 HD
ENDBRANCH   6  24
TORSDOF 5
ENDMDL
MODEL 8
REMARK VINA RESULT:    -8.094      1.854      2.634
REMARK INTER + INTRA:          -9.800
REMARK INTER:                  -9.488
REMARK INTRA:                  -0.312
REMARK UNBOUND:                -0.286
REMARK  Name = data/mahkota_dewa_dn/results/docking/ligands/pdb/Luteolin.pdb
REMARK  5 active torsions:
REMARK  status: ('A' for Active; 'I' for Inactive)
REMARK    1  A    between atoms: C3_3  and  O6_21
REMARK    2  A    between atoms: C4_4  and  O5_20
REMARK    3  A    between atoms: C6_6  and  C7_7
REMARK    4  A    between atoms: C11_12  and  O4_19
REMARK    5  A    between atoms: C13_14  and  O3_18
REMARK                            x       y       z     vdW  Elec       q    Type
REMARK                         _______ _______ _______ _____ _____    ______ ____
ROOT
ATOM      1  C7  UNL     1      28.578  32.253  66.247  0.00  0.00    +0.139 A 
ATOM      2  C8  UNL     1      28.926  31.342  65.326  0.00  0.00    +0.098 A 
ATOM      3  C9  UNL     1      30.175  31.531  64.574  0.00  0.00    +0.197 A 
ATOM      4  O1  UNL     1      30.534  30.734  63.713  0.00  0.00    -0.287 OA
ATOM      5  C10 UNL     1      30.975  32.718  64.893  0.00  0.00    +0.105 A 
ATOM      6  C11 UNL     1      32.180  32.991  64.236  0.00  0.00    +0.135 A 
ATOM      7  C12 UNL     1      32.916  34.127  64.564  0.00  0.00    +0.091 A 
ATOM      8  C13 UNL     1      32.437  34.984  65.551  0.00  0.00    +0.124 A 
ATOM      9  C14 UNL     1      31.239  34.723  66.211  0.00  0.00    +0.092 A 
ATOM     10  C15 UNL     1      30.506  33.584  65.878  0.00  0.00    +0.146 A 
ATOM     11  O2  UNL     1      29.333  33.374  66.559  0.00  0.00    -0.454 OA
ENDROOT
BRANCH   1  17
ATOM     12  C1  UNL     1      26.167  31.580  66.486  0.00  0.00    +0.015 A 
ATOM     13  C2  UNL     1      24.996  31.464  67.245  0.00  0.00    +0.050 A 
ATOM     14  C3  UNL     1      25.002  31.890  68.566  0.00  0.00    +0.158 A 
ATOM     15  C4  UNL     1      26.157  32.429  69.123  0.00  0.00    +0.159 A 
ATOM     16  C5  UNL     1      27.322  32.550  68.376  0.00  0.00    +0.060 A 
ATOM     17  C6  UNL     1      27.343  32.117  67.043  0.00  0.00    +0.021 A 
BRANCH  15  18
ATOM     18  O5  UNL     1      26.154  32.849  70.424  0.00  0.00    -0.503 OA
ATOM     19  H9  UNL     1      25.324  32.490  70.796  0.00  0.00    +0.292 HD
ENDBRANCH  15  18
BRANCH  14  20
ATOM     20  O6  UNL     1      23.893  31.803  69.360  0.00  0.00    -0.503 OA
ATOM     21  H10 UNL     1      23.927  32.525  70.011  0.00  0.00    +0.292 HD
ENDBRANCH  14  20
ENDBRANCH   1  17
BRANCH   8  22
ATOM     22  O3  UNL     1      33.122  36.109  65.906  0.00  0.00    -0.507 OA
ATOM     23  H7  UNL     1      33.180  36.147  66.876  0.00  0.00    +0.292 HD
ENDBRANCH   8  22
BRANCH   6  24
ATOM     24  O4  UNL     1      32.696  32.182  63.260  0.00  0.00    -0.506 OA
ATOM     25  H8  UNL     1      32.429  32.549  62.386  0.00  0.00    +0.292 HD
ENDBRANCH   6  24
TORSDOF 5
ENDMDL
MODEL 9
REMARK VINA RESULT:    -7.929      3.426      6.643
REMARK INTER + INTRA:          -9.606
REMARK INTER:                  -9.279
REMARK INTRA:                  -0.326
REMARK UNBOUND:                -0.286
REMARK  Name = data/mahkota_dewa_dn/results/docking/ligands/pdb/Luteolin.pdb
REMARK  5 active torsions:
REMARK  status: ('A' for Active; 'I' for Inactive)
REMARK    1  A    between atoms: C3_3  and  O6_21
REMARK    2  A    between atoms: C4_4  and  O5_20
REMARK    3  A    between atoms: C6_6  and  C7_7
REMARK    4  A    between atoms: C11_12  and  O4_19
REMARK    5  A    between atoms: C13_14  and  O3_18
REMARK                            x       y       z     vdW  Elec       q    Type
REMARK                         _______ _______ _______ _____ _____    ______ ____
ROOT
ATOM      1  C7  UNL     1      29.943  31.652  65.451  0.00  0.00    +0.139 A 
ATOM      2  C8  UNL     1      31.053  31.422  64.734  0.00  0.00    +0.098 A 
ATOM      3  C9  UNL     1      31.016  30.408  63.670  0.00  0.00    +0.197 A 
ATOM      4  O1  UNL     1      32.006  30.151  62.993  0.00  0.00    -0.287 OA
ATOM      5  C10 UNL     1      29.744  29.712  63.453  0.00  0.00    +0.105 A 
ATOM      6  C11 UNL     1      29.601  28.731  62.466  0.00  0.00    +0.135 A 
ATOM      7  C12 UNL     1      28.378  28.089  62.286  0.00  0.00    +0.091 A 
ATOM      8  C13 UNL     1      27.303  28.437  63.099  0.00  0.00    +0.124 A 
ATOM      9  C14 UNL     1      27.434  29.411  64.085  0.00  0.00    +0.092 A 
ATOM     10  C15 UNL     1      28.661  30.050  64.262  0.00  0.00    +0.146 A 
ATOM     11  O2  UNL     1      28.734  31.003  65.247  0.00  0.00    -0.454 OA
ENDROOT
BRANCH   1  17
ATOM     12  C1  UNL     1      30.949  33.600  66.682  0.00  0.00    +0.015 A 
ATOM     13  C2  UNL     1      30.916  34.549  67.711  0.00  0.00    +0.050 A 
ATOM     14  C3  UNL     1      29.841  34.557  68.589  0.00  0.00    +0.158 A 
ATOM     15  C4  UNL     1      28.814  33.629  68.447  0.00  0.00    +0.159 A 
ATOM     16  C5  UNL     1      28.840  32.683  67.431  0.00  0.00    +0.060 A 
ATOM     17  C6  UNL     1      29.911  32.662  66.526  0.00  0.00    +0.021 A 
BRANCH  15  18
ATOM     18  O5  UNL     1      27.759  33.642  69.317  0.00  0.00    -0.503 OA
ATOM     19  H9  UNL     1      28.091  33.181  70.112  0.00  0.00    +0.292 HD
ENDBRANCH  15  18
BRANCH  14  20
ATOM     20  O6  UNL     1      29.748  35.457  69.613  0.00  0.00    -0.503 OA
ATOM     21  H10 UNL     1      30.461  36.112  69.509  0.00  0.00    +0.292 HD
ENDBRANCH  14  20
ENDBRANCH   1  17
BRANCH   8  22
ATOM     22  O3  UNL     1      26.087  27.836  62.961  0.00  0.00    -0.507 OA
ATOM     23  H7  UNL     1      26.141  27.179  62.247  0.00  0.00    +0.292 HD
ENDBRANCH   8  22
BRANCH   6  24
ATOM     24  O4  UNL     1      30.624  28.352  61.639  0.00  0.00    -0.506 OA
ATOM     25  H8  UNL     1      31.280  27.849  62.174  0.00  0.00    +0.292 HD
ENDBRANCH   6  24
TORSDOF 5
ENDMDL
