MODEL 1
REMARK VINA RESULT:    -8.365      0.000      0.000
REMARK INTER + INTRA:         -13.157
REMARK INTER:                 -12.033
REMARK INTRA:                  -1.124
REMARK UNBOUND:                -1.124
REMARK  Name = data/mahkota_dewa_dn/results/docking/ligands/pdb/Sildenafil.pdb
REMARK  12 active torsions:
REMARK  status: ('A' for Active; 'I' for Inactive)
REMARK    1  A    between atoms: C1_1  and  C2_2
REMARK    2  A    between atoms: C2_2  and  C3_3
REMARK    3  A    between atoms: C3_3  and  C4_4
REMARK    4  A    between atoms: N2_6  and  C5_7
REMARK    5  A    between atoms: C8_11  and  O4_33
REMARK    6  A    between atoms: C9_13  and  C10_14
REMARK    7  A    between atoms: C12_16  and  S1_23
REMARK    8  A    between atoms: C15_19  and  O1_20
REMARK    9  A    between atoms: O1_20  and  C16_21
REMARK   10  A    between atoms: C16_21  and  C17_22
REMARK   11  A    between atoms: S1_23  and  N5_26
REMARK   12  A    between atoms: N6_29  and  C20_30
REMARK                            x       y       z     vdW  Elec       q    Type
REMARK                         _______ _______ _______ _____ _____    ______ ____
ROOT
ATOM      1  C10 UNL     1      31.262  30.775  63.934  0.00  0.00    +0.046 A 
ATOM      2  C11 UNL     1      31.727  32.058  63.597  0.00  0.00    +0.042 A 
ATOM      3  C12 UNL     1      33.095  32.317  63.488  0.00  0.00    +0.106 A 
ATOM      4  C13 UNL     1      34.020  31.287  63.652  0.00  0.00    +0.032 A 
ATOM      5  C14 UNL     1      33.577  30.006  63.987  0.00  0.00    +0.048 A 
ATOM      6  C15 UNL     1      32.208  29.747  64.151  0.00  0.00    +0.130 A 
ENDROOT
BRANCH   1  16
ATOM      7  C4  UNL     1      27.154  31.562  66.236  0.00  0.00    +0.089 A 
ATOM      8  N1  UNL     1      28.121  32.197  66.911  0.00  0.00    -0.174 NA
ATOM      9  N2  UNL     1      29.251  31.887  66.235  0.00  0.00    -0.263 N 
ATOM     10  C5  UNL     1      30.507  32.342  66.781  0.00  0.00    +0.173 C 
ATOM     11  C6  UNL     1      29.036  31.113  65.123  0.00  0.00    +0.113 A 
ATOM     12  C7  UNL     1      27.671  30.860  65.124  0.00  0.00    +0.119 A 
ATOM     13  N3  UNL     1      27.052  30.088  64.204  0.00  0.00    -0.192 NA
ATOM     14  C8  UNL     1      27.900  29.585  63.310  0.00  0.00    +0.317 A 
ATOM     15  N4  UNL     1      29.220  29.761  63.207  0.00  0.00    -0.193 NA
ATOM     16  C9  UNL     1      29.825  30.574  64.111  0.00  0.00    +0.107 A 
BRANCH  14  17
ATOM     17  O4  UNL     1      27.320  28.776  62.383  0.00  0.00    -0.478 OA
ATOM     18  H30 UNL     1      27.916  28.946  61.636  0.00  0.00    +0.295 HD
ENDBRANCH  14  17
BRANCH   7  19
ATOM     19  C3  UNL     1      25.734  31.644  66.684  0.00  0.00    +0.059 C 
BRANCH  19  21
ATOM     20  C1  UNL     1      24.466  31.630  68.863  0.00  0.00    +0.004 C 
ATOM     21  C2  UNL     1      25.607  32.260  68.078  0.00  0.00    +0.003 C 
ENDBRANCH  19  21
ENDBRANCH   7  19
ENDBRANCH   1  16
BRANCH   3  22
ATOM     22  S1  UNL     1      33.648  33.957  63.071  0.00  0.00    +0.061 S 
ATOM     23  O2  UNL     1      34.743  33.815  62.135  0.00  0.00    -0.153 OA
ATOM     24  O3  UNL     1      32.473  34.732  62.732  0.00  0.00    -0.153 OA
BRANCH  22  25
ATOM     25  N5  UNL     1      34.276  34.547  64.526  0.00  0.00    -0.174 NA
ATOM     26  C18 UNL     1      33.445  34.359  65.748  0.00  0.00    +0.125 C 
ATOM     27  C19 UNL     1      34.055  35.114  66.942  0.00  0.00    +0.101 C 
ATOM     28  N6  UNL     1      34.086  36.576  66.734  0.00  0.00    -0.303 NA
ATOM     29  C20 UNL     1      35.043  37.203  67.643  0.00  0.00    +0.105 C 
ATOM     30  C21 UNL     1      34.357  36.927  65.323  0.00  0.00    +0.101 C 
ATOM     31  C22 UNL     1      35.048  35.822  64.499  0.00  0.00    +0.125 C 
ENDBRANCH  22  25
ENDBRANCH   3  22
BRANCH   6  32
ATOM     32  O1  UNL     1      31.699  28.522  64.498  0.00  0.00    -0.492 OA
BRANCH  32  33
ATOM     33  C16 UNL     1      31.949  27.425  63.621  0.00  0.00    +0.226 C 
ATOM     34  C17 UNL     1      30.712  26.544  63.618  0.00  0.00    +0.048 C 
ENDBRANCH  32  33
ENDBRANCH   6  32
TORSDOF 8
ENDMDL
MODEL 2
REMARK VINA RESULT:    -7.991      1.496      1.641
REMARK INTER + INTRA:         -12.618
REMARK INTER:                 -11.442
REMARK INTRA:                  -1.176
REMARK UNBOUND:                -1.124
REMARK  Name = data/mahkota_dewa_dn/results/docking/ligands/pdb/Sildenafil.pdb
REMARK  12 active torsions:
REMARK  status: ('A' for Active; 'I' for Inactive)
REMARK    1  A    between atoms: C1_1  and  C2_2
REMARK    2  A    between atoms: C2_2  and  C3_3
REMARK    3  A    between atoms: C3_3  and  C4_4
REMARK    4  A    between atoms: N2_6  and  C5_7
REMARK    5  A    between atoms: C8_11  and  O4_33
REMARK    6  A    between atoms: C9_13  and  C10_14
REMARK    7  A    between atoms: C12_16  and  S1_23
REMARK    8  A    between atoms: C15_19  and  O1_20
REMARK    9  A    between atoms: O1_20  and  C16_21
REMARK   10  A    between atoms: C16_21  and  C17_22
REMARK   11  A    between atoms: S1_23  and  N5_26
REMARK   12  A    between atoms: N6_29  and  C20_30
REMARK                            x       y       z     vdW  Elec       q    Type
REMARK                         _______ _______ _______ _____ _____    ______ ____
ROOT
ATOM      1  C10 UNL     1      30.890  29.855  62.973  0.00  0.00    +0.046 A 
ATOM      2  C11 UNL     1      31.429  31.045  62.454  0.00  0.00    +0.042 A 
ATOM      3  C12 UNL     1      32.801  31.165  62.222  0.00  0.00    +0.106 A 
ATOM      4  C13 UNL     1      33.650  30.082  62.446  0.00  0.00    +0.032 A 
ATOM      5  C14 UNL     1      33.131  28.893  62.963  0.00  0.00    +0.048 A 
ATOM      6  C15 UNL     1      31.763  28.778  63.249  0.00  0.00    +0.130 A 
ENDROOT
BRANCH   1  16
ATOM      7  C4  UNL     1      27.091  31.067  65.600  0.00  0.00    +0.089 A 
ATOM      8  N1  UNL     1      28.171  31.596  66.188  0.00  0.00    -0.174 NA
ATOM      9  N2  UNL     1      29.203  31.170  65.423  0.00  0.00    -0.263 N 
ATOM     10  C5  UNL     1      30.541  31.491  65.861  0.00  0.00    +0.173 C 
ATOM     11  C6  UNL     1      28.817  30.424  64.339  0.00  0.00    +0.113 A 
ATOM     12  C7  UNL     1      27.438  30.315  64.455  0.00  0.00    +0.119 A 
ATOM     13  N3  UNL     1      26.668  29.612  63.595  0.00  0.00    -0.192 NA
ATOM     14  C8  UNL     1      27.382  29.024  62.638  0.00  0.00    +0.317 A 
ATOM     15  N4  UNL     1      28.700  29.061  62.426  0.00  0.00    -0.193 NA
ATOM     16  C9  UNL     1      29.459  29.806  63.270  0.00  0.00    +0.107 A 
BRANCH  14  17
ATOM     17  O4  UNL     1      26.645  28.281  61.769  0.00  0.00    -0.478 OA
ATOM     18  H30 UNL     1      25.757  28.509  62.086  0.00  0.00    +0.295 HD
ENDBRANCH  14  17
BRANCH   7  19
ATOM     19  C3  UNL     1      25.729  31.296  66.163  0.00  0.00    +0.059 C 
BRANCH  19  21
ATOM     20  C1  UNL     1      24.651  31.444  68.437  0.00  0.00    +0.004 C 
ATOM     21  C2  UNL     1      25.782  31.940  67.549  0.00  0.00    +0.003 C 
ENDBRANCH  19  21
ENDBRANCH   7  19
ENDBRANCH   1  16
BRANCH   3  22
ATOM     22  S1  UNL     1      33.451  32.690  61.573  0.00  0.00    +0.061 S 
ATOM     23  O2  UNL     1      34.791  32.417  61.096  0.00  0.00    -0.153 OA
ATOM     24  O3  UNL     1      32.445  33.245  60.693  0.00  0.00    -0.153 OA
BRANCH  22  25
ATOM     25  N5  UNL     1      33.575  33.682  62.937  0.00  0.00    -0.174 NA
ATOM     26  C18 UNL     1      32.405  34.549  63.252  0.00  0.00    +0.125 C 
ATOM     27  C19 UNL     1      32.743  35.525  64.393  0.00  0.00    +0.101 C 
ATOM     28  N6  UNL     1      33.822  36.468  64.035  0.00  0.00    -0.303 NA
ATOM     29  C20 UNL     1      34.412  37.055  65.236  0.00  0.00    +0.105 C 
ATOM     30  C21 UNL     1      34.844  35.836  63.173  0.00  0.00    +0.101 C 
ATOM     31  C22 UNL     1      34.897  34.297  63.249  0.00  0.00    +0.125 C 
ENDBRANCH  22  25
ENDBRANCH   3  22
BRANCH   6  32
ATOM     32  O1  UNL     1      31.184  27.651  63.775  0.00  0.00    -0.492 OA
BRANCH  32  33
ATOM     33  C16 UNL     1      31.635  26.386  63.295  0.00  0.00    +0.226 C 
ATOM     34  C17 UNL     1      31.037  25.313  64.189  0.00  0.00    +0.048 C 
ENDBRANCH  32  33
ENDBRANCH   6  32
TORSDOF 8
ENDMDL
MODEL 3
REMARK VINA RESULT:    -7.845      3.694      7.811
REMARK INTER + INTRA:         -12.408
REMARK INTER:                 -10.864
REMARK INTRA:                  -1.545
REMARK UNBOUND:                -1.124
REMARK  Name = data/mahkota_dewa_dn/results/docking/ligands/pdb/Sildenafil.pdb
REMARK  12 active torsions:
REMARK  status: ('A' for Active; 'I' for Inactive)
REMARK    1  A    between atoms: C1_1  and  C2_2
REMARK    2  A    between atoms: C2_2  and  C3_3
REMARK    3  A    between atoms: C3_3  and  C4_4
REMARK    4  A    between atoms: N2_6  and  C5_7
REMARK    5  A    between atoms: C8_11  and  O4_33
REMARK    6  A    between atoms: C9_13  and  C10_14
REMARK    7  A    between atoms: C12_16  and  S1_23
REMARK    8  A    between atoms: C15_19  and  O1_20
REMARK    9  A    between atoms: O1_20  and  C16_21
REMARK   10  A    between atoms: C16_21  and  C17_22
REMARK   11  A    between atoms: S1_23  and  N5_26
REMARK   12  A    between atoms: N6_29  and  C20_30
REMARK                            x       y       z     vdW  Elec       q    Type
REMARK                         _______ _______ _______ _____ _____    ______ ____
ROOT
ATOM      1  C10 UNL     1      33.574  35.419  64.418  0.00  0.00    +0.046 A 
ATOM      2  C11 UNL     1      32.645  35.038  65.403  0.00  0.00    +0.042 A 
ATOM      3  C12 UNL     1      32.902  35.273  66.755  0.00  0.00    +0.106 A 
ATOM      4  C13 UNL     1      34.059  35.946  67.145  0.00  0.00    +0.032 A 
ATOM      5  C14 UNL     1      34.993  36.331  66.181  0.00  0.00    +0.048 A 
ATOM      6  C15 UNL     1      34.770  36.053  64.824  0.00  0.00    +0.130 A 
ENDROOT
BRANCH   1  16
ATOM      7  C4  UNL     1      33.477  32.343  60.768  0.00  0.00    +0.089 A 
ATOM      8  N1  UNL     1      34.030  31.711  61.811  0.00  0.00    -0.174 NA
ATOM      9  N2  UNL     1      34.070  32.653  62.781  0.00  0.00    -0.263 N 
ATOM     10  C5  UNL     1      34.719  32.310  64.025  0.00  0.00    +0.173 C 
ATOM     11  C6  UNL     1      33.521  33.854  62.411  0.00  0.00    +0.113 A 
ATOM     12  C7  UNL     1      33.157  33.683  61.081  0.00  0.00    +0.119 A 
ATOM     13  N3  UNL     1      32.610  34.659  60.324  0.00  0.00    -0.192 NA
ATOM     14  C8  UNL     1      32.477  35.804  60.989  0.00  0.00    +0.317 A 
ATOM     15  N4  UNL     1      32.786  36.083  62.258  0.00  0.00    -0.193 NA
ATOM     16  C9  UNL     1      33.294  35.082  63.023  0.00  0.00    +0.107 A 
BRANCH  14  17
ATOM     17  O4  UNL     1      31.958  36.822  60.251  0.00  0.00    -0.478 OA
ATOM     18  H30 UNL     1      32.772  37.131  59.823  0.00  0.00    +0.295 HD
ENDBRANCH  14  17
BRANCH   7  19
ATOM     19  C3  UNL     1      33.270  31.634  59.472  0.00  0.00    +0.059 C 
BRANCH  19  21
ATOM     20  C1  UNL     1      34.979  32.503  57.835  0.00  0.00    +0.004 C 
ATOM     21  C2  UNL     1      34.591  31.355  58.754  0.00  0.00    +0.003 C 
ENDBRANCH  19  21
ENDBRANCH   7  19
ENDBRANCH   1  16
BRANCH   3  22
ATOM     22  S1  UNL     1      31.708  34.767  67.975  0.00  0.00    +0.061 S 
ATOM     23  O2  UNL     1      32.360  33.807  68.841  0.00  0.00    -0.153 OA
ATOM     24  O3  UNL     1      31.110  35.971  68.514  0.00  0.00    -0.153 OA
BRANCH  22  25
ATOM     25  N5  UNL     1      30.538  33.947  67.071  0.00  0.00    -0.174 NA
ATOM     26  C18 UNL     1      29.403  34.754  66.542  0.00  0.00    +0.125 C 
ATOM     27  C19 UNL     1      28.333  33.841  65.917  0.00  0.00    +0.101 C 
ATOM     28  N6  UNL     1      27.716  32.930  66.901  0.00  0.00    -0.303 NA
ATOM     29  C20 UNL     1      27.062  31.811  66.226  0.00  0.00    +0.105 C 
ATOM     30  C21 UNL     1      28.691  32.468  67.912  0.00  0.00    +0.101 C 
ATOM     31  C22 UNL     1      30.168  32.562  67.482  0.00  0.00    +0.125 C 
ENDBRANCH  22  25
ENDBRANCH   3  22
BRANCH   6  32
ATOM     32  O1  UNL     1      35.649  36.382  63.823  0.00  0.00    -0.492 OA
BRANCH  32  33
ATOM     33  C16 UNL     1      36.977  35.870  63.909  0.00  0.00    +0.226 C 
ATOM     34  C17 UNL     1      37.122  34.782  62.860  0.00  0.00    +0.048 C 
ENDBRANCH  32  33
ENDBRANCH   6  32
TORSDOF 8
ENDMDL
MODEL 4
REMARK VINA RESULT:    -7.828      3.736      7.623
REMARK INTER + INTRA:         -12.385
REMARK INTER:                 -12.027
REMARK INTRA:                  -0.358
REMARK UNBOUND:                -1.124
REMARK  Name = data/mahkota_dewa_dn/results/docking/ligands/pdb/Sildenafil.pdb
REMARK  12 active torsions:
REMARK  status: ('A' for Active; 'I' for Inactive)
REMARK    1  A    between atoms: C1_1  and  C2_2
REMARK    2  A    between atoms: C2_2  and  C3_3
REMARK    3  A    between atoms: C3_3  and  C4_4
REMARK    4  A    between atoms: N2_6  and  C5_7
REMARK    5  A    between atoms: C8_11  and  O4_33
REMARK    6  A    between atoms: C9_13  and  C10_14
REMARK    7  A    between atoms: C12_16  and  S1_23
REMARK    8  A    between atoms: C15_19  and  O1_20
REMARK    9  A    between atoms: O1_20  and  C16_21
REMARK   10  A    between atoms: C16_21  and  C17_22
REMARK   11  A    between atoms: S1_23  and  N5_26
REMARK   12  A    between atoms: N6_29  and  C20_30
REMARK                            x       y       z     vdW  Elec       q    Type
REMARK                         _______ _______ _______ _____ _____    ______ ____
ROOT
ATOM      1  C10 UNL     1      27.127  29.784  63.732  0.00  0.00    +0.046 A 
ATOM      2  C11 UNL     1      28.095  28.766  63.676  0.00  0.00    +0.042 A 
ATOM      3  C12 UNL     1      28.122  27.864  62.611  0.00  0.00    +0.106 A 
ATOM      4  C13 UNL     1      27.224  27.999  61.553  0.00  0.00    +0.032 A 
ATOM      5  C14 UNL     1      26.255  29.003  61.593  0.00  0.00    +0.048 A 
ATOM      6  C15 UNL     1      26.186  29.882  62.683  0.00  0.00    +0.130 A 
ENDROOT
BRANCH   1  16
ATOM      7  C4  UNL     1      29.177  32.870  66.744  0.00  0.00    +0.089 A 
ATOM      8  N1  UNL     1      30.113  32.480  65.871  0.00  0.00    -0.174 NA
ATOM      9  N2  UNL     1      29.477  31.576  65.090  0.00  0.00    -0.263 N 
ATOM     10  C5  UNL     1      30.258  30.879  64.096  0.00  0.00    +0.173 C 
ATOM     11  C6  UNL     1      28.153  31.408  65.405  0.00  0.00    +0.113 A 
ATOM     12  C7  UNL     1      27.943  32.222  66.509  0.00  0.00    +0.119 A 
ATOM     13  N3  UNL     1      26.762  32.312  67.160  0.00  0.00    -0.192 NA
ATOM     14  C8  UNL     1      25.831  31.521  66.633  0.00  0.00    +0.317 A 
ATOM     15  N4  UNL     1      25.915  30.705  65.579  0.00  0.00    -0.193 NA
ATOM     16  C9  UNL     1      27.094  30.655  64.907  0.00  0.00    +0.107 A 
BRANCH  14  17
ATOM     17  O4  UNL     1      24.634  31.560  67.279  0.00  0.00    -0.478 OA
ATOM     18  H30 UNL     1      24.528  32.522  67.346  0.00  0.00    +0.295 HD
ENDBRANCH  14  17
BRANCH   7  19
ATOM     19  C3  UNL     1      29.495  33.870  67.804  0.00  0.00    +0.059 C 
BRANCH  19  21
ATOM     20  C1  UNL     1      31.353  35.411  68.531  0.00  0.00    +0.004 C 
ATOM     21  C2  UNL     1      30.563  34.867  67.351  0.00  0.00    +0.003 C 
ENDBRANCH  19  21
ENDBRANCH   7  19
ENDBRANCH   1  16
BRANCH   3  22
ATOM     22  S1  UNL     1      29.355  26.580  62.578  0.00  0.00    +0.061 S 
ATOM     23  O2  UNL     1      30.303  26.869  63.634  0.00  0.00    -0.153 OA
ATOM     24  O3  UNL     1      28.654  25.314  62.531  0.00  0.00    -0.153 OA
BRANCH  22  25
ATOM     25  N5  UNL     1      30.135  26.815  61.097  0.00  0.00    -0.174 NA
ATOM     26  C18 UNL     1      29.904  25.792  60.040  0.00  0.00    +0.125 C 
ATOM     27  C19 UNL     1      30.827  26.038  58.833  0.00  0.00    +0.101 C 
ATOM     28  N6  UNL     1      32.257  25.905  59.174  0.00  0.00    -0.303 NA
ATOM     29  C20 UNL     1      33.089  26.563  58.169  0.00  0.00    +0.105 C 
ATOM     30  C21 UNL     1      32.548  26.400  60.537  0.00  0.00    +0.101 C 
ATOM     31  C22 UNL     1      31.511  27.390  61.104  0.00  0.00    +0.125 C 
ENDBRANCH  22  25
ENDBRANCH   3  22
BRANCH   6  32
ATOM     32  O1  UNL     1      25.252  30.880  62.802  0.00  0.00    -0.492 OA
BRANCH  32  33
ATOM     33  C16 UNL     1      24.420  31.150  61.676  0.00  0.00    +0.226 C 
ATOM     34  C17 UNL     1      22.976  30.988  62.118  0.00  0.00    +0.048 C 
ENDBRANCH  32  33
ENDBRANCH   6  32
TORSDOF 8
ENDMDL
MODEL 5
REMARK VINA RESULT:    -7.727      3.403      6.773
REMARK INTER + INTRA:         -12.240
REMARK INTER:                 -10.792
REMARK INTRA:                  -1.447
REMARK UNBOUND:                -1.124
REMARK  Name = data/mahkota_dewa_dn/results/docking/ligands/pdb/Sildenafil.pdb
REMARK  12 active torsions:
REMARK  status: ('A' for Active; 'I' for Inactive)
REMARK    1  A    between atoms: C1_1  and  C2_2
REMARK    2  A    between atoms: C2_2  and  C3_3
REMARK    3  A    between atoms: C3_3  and  C4_4
REMARK    4  A    between atoms: N2_6  and  C5_7
REMARK    5  A    between atoms: C8_11  and  O4_33
REMARK    6  A    between atoms: C9_13  and  C10_14
REMARK    7  A    between atoms: C12_16  and  S1_23
REMARK    8  A    between atoms: C15_19  and  O1_20
REMARK    9  A    between atoms: O1_20  and  C16_21
REMARK   10  A    between atoms: C16_21  and  C17_22
REMARK   11  A    between atoms: S1_23  and  N5_26
REMARK   12  A    between atoms: N6_29  and  C20_30
REMARK                            x       y       z     vdW  Elec       q    Type
REMARK                         _______ _______ _______ _____ _____    ______ ____
ROOT
ATOM      1  C10 UNL     1      34.726  34.549  64.791  0.00  0.00    +0.046 A 
ATOM      2  C11 UNL     1      35.261  33.255  64.666  0.00  0.00    +0.042 A 
ATOM      3  C12 UNL     1      35.994  32.891  63.535  0.00  0.00    +0.106 A 
ATOM      4  C13 UNL     1      36.257  33.828  62.537  0.00  0.00    +0.032 A 
ATOM      5  C14 UNL     1      35.733  35.118  62.644  0.00  0.00    +0.048 A 
ATOM      6  C15 UNL     1      34.952  35.479  63.751  0.00  0.00    +0.130 A 
ENDROOT
BRANCH   1  16
ATOM      7  C4  UNL     1      30.644  34.277  67.253  0.00  0.00    +0.089 A 
ATOM      8  N1  UNL     1      30.447  33.663  66.080  0.00  0.00    -0.174 NA
ATOM      9  N2  UNL     1      31.619  33.825  65.424  0.00  0.00    -0.263 N 
ATOM     10  C5  UNL     1      31.696  33.357  64.060  0.00  0.00    +0.173 C 
ATOM     11  C6  UNL     1      32.576  34.483  66.154  0.00  0.00    +0.113 A 
ATOM     12  C7  UNL     1      31.946  34.818  67.345  0.00  0.00    +0.119 A 
ATOM     13  N3  UNL     1      32.541  35.521  68.334  0.00  0.00    -0.192 NA
ATOM     14  C8  UNL     1      33.790  35.867  68.030  0.00  0.00    +0.317 A 
ATOM     15  N4  UNL     1      34.495  35.600  66.928  0.00  0.00    -0.193 NA
ATOM     16  C9  UNL     1      33.902  34.856  65.959  0.00  0.00    +0.107 A 
BRANCH  14  17
ATOM     17  O4  UNL     1      34.414  36.603  68.990  0.00  0.00    -0.478 OA
ATOM     18  H30 UNL     1      35.098  37.020  68.442  0.00  0.00    +0.295 HD
ENDBRANCH  14  17
BRANCH   7  19
ATOM     19  C3  UNL     1      29.558  34.334  68.274  0.00  0.00    +0.059 C 
BRANCH  19  21
ATOM     20  C1  UNL     1      27.642  32.920  69.101  0.00  0.00    +0.004 C 
ATOM     21  C2  UNL     1      28.354  33.478  67.878  0.00  0.00    +0.003 C 
ENDBRANCH  19  21
ENDBRANCH   7  19
ENDBRANCH   1  16
BRANCH   3  22
ATOM     22  S1  UNL     1      36.647  31.240  63.405  0.00  0.00    +0.061 S 
ATOM     23  O2  UNL     1      36.921  30.996  62.004  0.00  0.00    -0.153 OA
ATOM     24  O3  UNL     1      37.689  31.112  64.402  0.00  0.00    -0.153 OA
BRANCH  22  25
ATOM     25  N5  UNL     1      35.347  30.261  63.861  0.00  0.00    -0.174 NA
ATOM     26  C18 UNL     1      35.666  28.875  64.305  0.00  0.00    +0.125 C 
ATOM     27  C19 UNL     1      34.377  28.055  64.497  0.00  0.00    +0.101 C 
ATOM     28  N6  UNL     1      33.623  27.879  63.239  0.00  0.00    -0.303 NA
ATOM     29  C20 UNL     1      32.238  27.508  63.519  0.00  0.00    +0.105 C 
ATOM     30  C21 UNL     1      33.707  29.076  62.374  0.00  0.00    +0.101 C 
ATOM     31  C22 UNL     1      34.067  30.384  63.105  0.00  0.00    +0.125 C 
ENDBRANCH  22  25
ENDBRANCH   3  22
BRANCH   6  32
ATOM     32  O1  UNL     1      34.387  36.718  63.917  0.00  0.00    -0.492 OA
BRANCH  32  33
ATOM     33  C16 UNL     1      33.742  37.310  62.792  0.00  0.00    +0.226 C 
ATOM     34  C17 UNL     1      32.405  36.613  62.605  0.00  0.00    +0.048 C 
ENDBRANCH  32  33
ENDBRANCH   6  32
TORSDOF 8
ENDMDL
MODEL 6
REMARK VINA RESULT:    -7.645      2.299      4.786
REMARK INTER + INTRA:         -12.121
REMARK INTER:                 -11.310
REMARK INTRA:                  -0.811
REMARK UNBOUND:                -1.124
REMARK  Name = data/mahkota_dewa_dn/results/docking/ligands/pdb/Sildenafil.pdb
REMARK  12 active torsions:
REMARK  status: ('A' for Active; 'I' for Inactive)
REMARK    1  A    between atoms: C1_1  and  C2_2
REMARK    2  A    between atoms: C2_2  and  C3_3
REMARK    3  A    between atoms: C3_3  and  C4_4
REMARK    4  A    between atoms: N2_6  and  C5_7
REMARK    5  A    between atoms: C8_11  and  O4_33
REMARK    6  A    between atoms: C9_13  and  C10_14
REMARK    7  A    between atoms: C12_16  and  S1_23
REMARK    8  A    between atoms: C15_19  and  O1_20
REMARK    9  A    between atoms: O1_20  and  C16_21
REMARK   10  A    between atoms: C16_21  and  C17_22
REMARK   11  A    between atoms: S1_23  and  N5_26
REMARK   12  A    between atoms: N6_29  and  C20_30
REMARK                            x       y       z     vdW  Elec       q    Type
REMARK                         _______ _______ _______ _____ _____    ______ ____
ROOT
ATOM      1  C10 UNL     1      30.323  32.631  65.525  0.00  0.00    +0.046 A 
ATOM      2  C11 UNL     1      31.202  33.359  64.705  0.00  0.00    +0.042 A 
ATOM      3  C12 UNL     1      31.855  34.495  65.189  0.00  0.00    +0.106 A 
ATOM      4  C13 UNL     1      31.690  34.889  66.516  0.00  0.00    +0.032 A 
ATOM      5  C14 UNL     1      30.820  34.178  67.345  0.00  0.00    +0.048 A 
ATOM      6  C15 UNL     1      30.119  33.067  66.855  0.00  0.00    +0.130 A 
ENDROOT
BRANCH   1  16
ATOM      7  C4  UNL     1      30.220  28.353  63.409  0.00  0.00    +0.089 A 
ATOM      8  N1  UNL     1      31.504  28.713  63.524  0.00  0.00    -0.174 NA
ATOM      9  N2  UNL     1      31.450  29.945  64.079  0.00  0.00    -0.263 N 
ATOM     10  C5  UNL     1      32.692  30.665  64.240  0.00  0.00    +0.173 C 
ATOM     11  C6  UNL     1      30.178  30.369  64.366  0.00  0.00    +0.113 A 
ATOM     12  C7  UNL     1      29.352  29.353  63.903  0.00  0.00    +0.119 A 
ATOM     13  N3  UNL     1      28.003  29.401  63.959  0.00  0.00    -0.192 NA
ATOM     14  C8  UNL     1      27.557  30.536  64.491  0.00  0.00    +0.317 A 
ATOM     15  N4  UNL     1      28.250  31.573  64.970  0.00  0.00    -0.193 NA
ATOM     16  C9  UNL     1      29.605  31.495  64.949  0.00  0.00    +0.107 A 
BRANCH  14  17
ATOM     17  O4  UNL     1      26.201  30.636  64.537  0.00  0.00    -0.478 OA
ATOM     18  H30 UNL     1      26.070  30.511  65.490  0.00  0.00    +0.295 HD
ENDBRANCH  14  17
BRANCH   7  19
ATOM     19  C3  UNL     1      29.849  27.036  62.815  0.00  0.00    +0.059 C 
BRANCH  19  21
ATOM     20  C1  UNL     1      27.843  26.890  61.296  0.00  0.00    +0.004 C 
ATOM     21  C2  UNL     1      29.334  27.178  61.382  0.00  0.00    +0.003 C 
ENDBRANCH  19  21
ENDBRANCH   7  19
ENDBRANCH   1  16
BRANCH   3  22
ATOM     22  S1  UNL     1      32.953  35.399  64.118  0.00  0.00    +0.061 S 
ATOM     23  O2  UNL     1      32.296  35.520  62.833  0.00  0.00    -0.153 OA
ATOM     24  O3  UNL     1      33.391  36.572  64.844  0.00  0.00    -0.153 OA
BRANCH  22  25
ATOM     25  N5  UNL     1      34.274  34.360  63.934  0.00  0.00    -0.174 NA
ATOM     26  C18 UNL     1      35.016  33.982  65.169  0.00  0.00    +0.125 C 
ATOM     27  C19 UNL     1      36.294  33.200  64.818  0.00  0.00    +0.101 C 
ATOM     28  N6  UNL     1      37.256  34.003  64.036  0.00  0.00    -0.303 NA
ATOM     29  C20 UNL     1      38.215  33.137  63.354  0.00  0.00    +0.105 C 
ATOM     30  C21 UNL     1      36.574  34.916  63.093  0.00  0.00    +0.101 C 
ATOM     31  C22 UNL     1      35.133  34.513  62.724  0.00  0.00    +0.125 C 
ENDBRANCH  22  25
ENDBRANCH   3  22
BRANCH   6  32
ATOM     32  O1  UNL     1      29.234  32.332  67.601  0.00  0.00    -0.492 OA
BRANCH  32  33
ATOM     33  C16 UNL     1      28.371  33.035  68.492  0.00  0.00    +0.226 C 
ATOM     34  C17 UNL     1      27.106  33.389  67.729  0.00  0.00    +0.048 C 
ENDBRANCH  32  33
ENDBRANCH   6  32
TORSDOF 8
ENDMDL
MODEL 7
REMARK VINA RESULT:    -7.504      3.048      7.936
REMARK INTER + INTRA:         -11.918
REMARK INTER:                 -10.412
REMARK INTRA:                  -1.506
REMARK UNBOUND:                -1.124
REMARK  Name = data/mahkota_dewa_dn/results/docking/ligands/pdb/Sildenafil.pdb
REMARK  12 active torsions:
REMARK  status: ('A' for Active; 'I' for Inactive)
REMARK    1  A    between atoms: C1_1  and  C2_2
REMARK    2  A    between atoms: C2_2  and  C3_3
REMARK    3  A    between atoms: C3_3  and  C4_4
REMARK    4  A    between atoms: N2_6  and  C5_7
REMARK    5  A    between atoms: C8_11  and  O4_33
REMARK    6  A    between atoms: C9_13  and  C10_14
REMARK    7  A    between atoms: C12_16  and  S1_23
REMARK    8  A    between atoms: C15_19  and  O1_20
REMARK    9  A    between atoms: O1_20  and  C16_21
REMARK   10  A    between atoms: C16_21  and  C17_22
REMARK   11  A    between atoms: S1_23  and  N5_26
REMARK   12  A    between atoms: N6_29  and  C20_30
REMARK                            x       y       z     vdW  Elec       q    Type
REMARK                         _______ _______ _______ _____ _____    ______ ____
ROOT
ATOM      1  C10 UNL     1      33.535  32.596  63.047  0.00  0.00    +0.046 A 
ATOM      2  C11 UNL     1      33.085  31.273  63.192  0.00  0.00    +0.042 A 
ATOM      3  C12 UNL     1      32.343  30.656  62.183  0.00  0.00    +0.106 A 
ATOM      4  C13 UNL     1      32.089  31.327  60.987  0.00  0.00    +0.032 A 
ATOM      5  C14 UNL     1      32.528  32.643  60.826  0.00  0.00    +0.048 A 
ATOM      6  C15 UNL     1      33.229  33.290  61.854  0.00  0.00    +0.130 A 
ENDROOT
BRANCH   1  16
ATOM      7  C4  UNL     1      33.610  35.137  67.089  0.00  0.00    +0.089 A 
ATOM      8  N1  UNL     1      32.342  35.102  66.660  0.00  0.00    -0.174 NA
ATOM      9  N2  UNL     1      32.409  34.417  65.496  0.00  0.00    -0.263 N 
ATOM     10  C5  UNL     1      31.199  34.295  64.717  0.00  0.00    +0.173 C 
ATOM     11  C6  UNL     1      33.668  33.971  65.187  0.00  0.00    +0.113 A 
ATOM     12  C7  UNL     1      34.478  34.462  66.202  0.00  0.00    +0.119 A 
ATOM     13  N3  UNL     1      35.816  34.278  66.247  0.00  0.00    -0.192 NA
ATOM     14  C8  UNL     1      36.270  33.590  65.202  0.00  0.00    +0.317 A 
ATOM     15  N4  UNL     1      35.591  33.069  64.177  0.00  0.00    -0.193 NA
ATOM     16  C9  UNL     1      34.242  33.222  64.164  0.00  0.00    +0.107 A 
BRANCH  14  17
ATOM     17  O4  UNL     1      37.618  33.409  65.196  0.00  0.00    -0.478 OA
ATOM     18  H30 UNL     1      37.643  32.445  65.095  0.00  0.00    +0.295 HD
ENDBRANCH  14  17
BRANCH   7  19
ATOM     19  C3  UNL     1      33.964  35.831  68.361  0.00  0.00    +0.059 C 
BRANCH  19  21
ATOM     20  C1  UNL     1      34.885  37.756  67.018  0.00  0.00    +0.004 C 
ATOM     21  C2  UNL     1      34.007  37.351  68.192  0.00  0.00    +0.003 C 
ENDBRANCH  19  21
ENDBRANCH   7  19
ENDBRANCH   1  16
BRANCH   3  22
ATOM     22  S1  UNL     1      31.779  28.982  62.405  0.00  0.00    +0.061 S 
ATOM     23  O2  UNL     1      32.325  28.198  61.318  0.00  0.00    -0.153 OA
ATOM     24  O3  UNL     1      32.034  28.624  63.784  0.00  0.00    -0.153 OA
BRANCH  22  25
ATOM     25  N5  UNL     1      30.106  29.093  62.181  0.00  0.00    -0.174 NA
ATOM     26  C18 UNL     1      29.317  29.724  63.276  0.00  0.00    +0.125 C 
ATOM     27  C19 UNL     1      27.808  29.575  63.014  0.00  0.00    +0.101 C 
ATOM     28  N6  UNL     1      27.369  28.165  63.004  0.00  0.00    -0.303 NA
ATOM     29  C20 UNL     1      26.080  28.032  62.330  0.00  0.00    +0.105 C 
ATOM     30  C21 UNL     1      28.392  27.273  62.414  0.00  0.00    +0.101 C 
ATOM     31  C22 UNL     1      29.408  27.971  61.489  0.00  0.00    +0.125 C 
ENDBRANCH  22  25
ENDBRANCH   3  22
BRANCH   6  32
ATOM     32  O1  UNL     1      33.675  34.585  61.778  0.00  0.00    -0.492 OA
BRANCH  32  33
ATOM     33  C16 UNL     1      32.698  35.621  61.710  0.00  0.00    +0.226 C 
ATOM     34  C17 UNL     1      33.124  36.721  62.668  0.00  0.00    +0.048 C 
ENDBRANCH  32  33
ENDBRANCH   6  32
TORSDOF 8
ENDMDL
MODEL 8
REMARK VINA RESULT:    -7.422      3.518      6.844
REMARK INTER + INTRA:         -11.800
REMARK INTER:                 -10.463
REMARK INTRA:                  -1.337
REMARK UNBOUND:                -1.124
REMARK  Name = data/mahkota_dewa_dn/results/docking/ligands/pdb/Sildenafil.pdb
REMARK  12 active torsions:
REMARK  status: ('A' for Active; 'I' for Inactive)
REMARK    1  A    between atoms: C1_1  and  C2_2
REMARK    2  A    between atoms: C2_2  and  C3_3
REMARK    3  A    between atoms: C3_3  and  C4_4
REMARK    4  A    between atoms: N2_6  and  C5_7
REMARK    5  A    between atoms: C8_11  and  O4_33
REMARK    6  A    between atoms: C9_13  and  C10_14
REMARK    7  A    between atoms: C12_16  and  S1_23
REMARK    8  A    between atoms: C15_19  and  O1_20
REMARK    9  A    between atoms: O1_20  and  C16_21
REMARK   10  A    between atoms: C16_21  and  C17_22
REMARK   11  A    between atoms: S1_23  and  N5_26
REMARK   12  A    between atoms: N6_29  and  C20_30
REMARK                            x       y       z     vdW  Elec       q    Type
REMARK                         _______ _______ _______ _____ _____    ______ ____
ROOT
ATOM      1  C10 UNL     1      34.744  34.686  64.824  0.00  0.00    +0.046 A 
ATOM      2  C11 UNL     1      35.458  33.476  64.757  0.00  0.00    +0.042 A 
ATOM      3  C12 UNL     1      36.397  33.257  63.748  0.00  0.00    +0.106 A 
ATOM      4  C13 UNL     1      36.684  34.260  62.824  0.00  0.00    +0.032 A 
ATOM      5  C14 UNL     1      35.984  35.467  62.875  0.00  0.00    +0.048 A 
ATOM      6  C15 UNL     1      35.002  35.680  63.853  0.00  0.00    +0.130 A 
ENDROOT
BRANCH   1  16
ATOM      7  C4  UNL     1      30.453  33.695  66.669  0.00  0.00    +0.089 A 
ATOM      8  N1  UNL     1      30.538  33.066  65.490  0.00  0.00    -0.174 NA
ATOM      9  N2  UNL     1      31.748  33.433  65.009  0.00  0.00    -0.263 N 
ATOM     10  C5  UNL     1      32.104  32.996  63.680  0.00  0.00    +0.173 C 
ATOM     11  C6  UNL     1      32.461  34.239  65.860  0.00  0.00    +0.113 A 
ATOM     12  C7  UNL     1      31.615  34.452  66.941  0.00  0.00    +0.119 A 
ATOM     13  N3  UNL     1      31.929  35.238  67.994  0.00  0.00    -0.192 NA
ATOM     14  C8  UNL     1      33.131  35.797  67.869  0.00  0.00    +0.317 A 
ATOM     15  N4  UNL     1      34.025  35.664  66.886  0.00  0.00    -0.193 NA
ATOM     16  C9  UNL     1      33.717  34.837  65.854  0.00  0.00    +0.107 A 
BRANCH  14  17
ATOM     17  O4  UNL     1      33.472  36.621  68.896  0.00  0.00    -0.478 OA
ATOM     18  H30 UNL     1      33.217  37.471  68.502  0.00  0.00    +0.295 HD
ENDBRANCH  14  17
BRANCH   7  19
ATOM     19  C3  UNL     1      29.236  33.556  67.520  0.00  0.00    +0.059 C 
BRANCH  19  21
ATOM     20  C1  UNL     1      27.152  32.265  66.930  0.00  0.00    +0.004 C 
ATOM     21  C2  UNL     1      27.953  33.535  66.687  0.00  0.00    +0.003 C 
ENDBRANCH  19  21
ENDBRANCH   7  19
ENDBRANCH   1  16
BRANCH   3  22
ATOM     22  S1  UNL     1      37.274  31.708  63.687  0.00  0.00    +0.061 S 
ATOM     23  O2  UNL     1      38.688  32.018  63.638  0.00  0.00    -0.153 OA
ATOM     24  O3  UNL     1      36.731  30.867  64.732  0.00  0.00    -0.153 OA
BRANCH  22  25
ATOM     25  N5  UNL     1      36.830  31.057  62.191  0.00  0.00    -0.174 NA
ATOM     26  C18 UNL     1      35.409  31.222  61.776  0.00  0.00    +0.125 C 
ATOM     27  C19 UNL     1      35.118  30.414  60.499  0.00  0.00    +0.101 C 
ATOM     28  N6  UNL     1      35.283  28.960  60.695  0.00  0.00    -0.303 NA
ATOM     29  C20 UNL     1      35.441  28.283  59.410  0.00  0.00    +0.105 C 
ATOM     30  C21 UNL     1      36.395  28.651  61.620  0.00  0.00    +0.101 C 
ATOM     31  C22 UNL     1      37.447  29.768  61.768  0.00  0.00    +0.125 C 
ENDBRANCH  22  25
ENDBRANCH   3  22
BRANCH   6  32
ATOM     32  O1  UNL     1      34.260  36.829  63.954  0.00  0.00    -0.492 OA
BRANCH  32  33
ATOM     33  C16 UNL     1      33.599  37.300  62.781  0.00  0.00    +0.226 C 
ATOM     34  C17 UNL     1      32.387  36.415  62.547  0.00  0.00    +0.048 C 
ENDBRANCH  32  33
ENDBRANCH   6  32
TORSDOF 8
ENDMDL
MODEL 9
REMARK VINA RESULT:    -7.402      2.593      5.498
REMARK INTER + INTRA:         -11.771
REMARK INTER:                 -11.443
REMARK INTRA:                  -0.328
REMARK UNBOUND:                -1.124
REMARK  Name = data/mahkota_dewa_dn/results/docking/ligands/pdb/Sildenafil.pdb
REMARK  12 active torsions:
REMARK  status: ('A' for Active; 'I' for Inactive)
REMARK    1  A    between atoms: C1_1  and  C2_2
REMARK    2  A    between atoms: C2_2  and  C3_3
REMARK    3  A    between atoms: C3_3  and  C4_4
REMARK    4  A    between atoms: N2_6  and  C5_7
REMARK    5  A    between atoms: C8_11  and  O4_33
REMARK    6  A    between atoms: C9_13  and  C10_14
REMARK    7  A    between atoms: C12_16  and  S1_23
REMARK    8  A    between atoms: C15_19  and  O1_20
REMARK    9  A    between atoms: O1_20  and  C16_21
REMARK   10  A    between atoms: C16_21  and  C17_22
REMARK   11  A    between atoms: S1_23  and  N5_26
REMARK   12  A    between atoms: N6_29  and  C20_30
REMARK                            x       y       z     vdW  Elec       q    Type
REMARK                         _______ _______ _______ _____ _____    ______ ____
ROOT
ATOM      1  C10 UNL     1      28.897  30.452  64.380  0.00  0.00    +0.046 A 
ATOM      2  C11 UNL     1      30.178  30.938  64.067  0.00  0.00    +0.042 A 
ATOM      3  C12 UNL     1      30.740  31.991  64.792  0.00  0.00    +0.106 A 
ATOM      4  C13 UNL     1      30.061  32.536  65.881  0.00  0.00    +0.032 A 
ATOM      5  C14 UNL     1      28.787  32.066  66.206  0.00  0.00    +0.048 A 
ATOM      6  C15 UNL     1      28.191  31.045  65.452  0.00  0.00    +0.130 A 
ENDROOT
BRANCH   1  16
ATOM      7  C4  UNL     1      29.041  26.128  62.362  0.00  0.00    +0.089 A 
ATOM      8  N1  UNL     1      30.200  26.308  63.008  0.00  0.00    -0.174 NA
ATOM      9  N2  UNL     1      30.107  27.563  63.505  0.00  0.00    -0.263 N 
ATOM     10  C5  UNL     1      31.262  28.107  64.179  0.00  0.00    +0.173 C 
ATOM     11  C6  UNL     1      28.909  28.176  63.239  0.00  0.00    +0.113 A 
ATOM     12  C7  UNL     1      28.208  27.265  62.460  0.00  0.00    +0.119 A 
ATOM     13  N3  UNL     1      26.982  27.506  61.947  0.00  0.00    -0.192 NA
ATOM     14  C8  UNL     1      26.531  28.719  62.258  0.00  0.00    +0.317 A 
ATOM     15  N4  UNL     1      27.109  29.670  62.996  0.00  0.00    -0.193 NA
ATOM     16  C9  UNL     1      28.322  29.401  63.543  0.00  0.00    +0.107 A 
BRANCH  14  17
ATOM     17  O4  UNL     1      25.310  29.012  61.734  0.00  0.00    -0.478 OA
ATOM     18  H30 UNL     1      25.262  29.951  61.972  0.00  0.00    +0.295 HD
ENDBRANCH  14  17
BRANCH   7  19
ATOM     19  C3  UNL     1      28.758  24.848  61.650  0.00  0.00    +0.059 C 
BRANCH  19  21
ATOM     20  C1  UNL     1      29.669  22.505  61.842  0.00  0.00    +0.004 C 
ATOM     21  C2  UNL     1      30.000  23.960  61.550  0.00  0.00    +0.003 C 
ENDBRANCH  19  21
ENDBRANCH   7  19
ENDBRANCH   1  16
BRANCH   3  22
ATOM     22  S1  UNL     1      32.361  32.589  64.360  0.00  0.00    +0.061 S 
ATOM     23  O2  UNL     1      32.968  33.095  65.572  0.00  0.00    -0.153 OA
ATOM     24  O3  UNL     1      33.005  31.554  63.579  0.00  0.00    -0.153 OA
BRANCH  22  25
ATOM     25  N5  UNL     1      32.042  33.904  63.346  0.00  0.00    -0.174 NA
ATOM     26  C18 UNL     1      32.813  33.981  62.074  0.00  0.00    +0.125 C 
ATOM     27  C19 UNL     1      32.556  35.321  61.363  0.00  0.00    +0.101 C 
ATOM     28  N6  UNL     1      33.019  36.482  62.151  0.00  0.00    -0.303 NA
ATOM     29  C20 UNL     1      32.379  37.709  61.682  0.00  0.00    +0.105 C 
ATOM     30  C21 UNL     1      32.819  36.278  63.602  0.00  0.00    +0.101 C 
ATOM     31  C22 UNL     1      31.754  35.227  63.971  0.00  0.00    +0.125 C 
ENDBRANCH  22  25
ENDBRANCH   3  22
BRANCH   6  32
ATOM     32  O1  UNL     1      26.938  30.545  65.698  0.00  0.00    -0.492 OA
BRANCH  32  33
ATOM     33  C16 UNL     1      25.870  31.476  65.859  0.00  0.00    +0.226 C 
ATOM     34  C17 UNL     1      25.354  31.347  67.282  0.00  0.00    +0.048 C 
ENDBRANCH  32  33
ENDBRANCH   6  32
TORSDOF 8
ENDMDL
