MODEL 1
REMARK VINA RESULT:    -7.805      0.000      0.000
REMARK INTER + INTRA:         -10.754
REMARK INTER:                 -10.087
REMARK INTRA:                  -0.667
REMARK UNBOUND:                -0.667
REMARK  Name = data/mahkota_dewa_dn/results/docking/ligands/pdb/Naringeninchalcone.pdb
REMARK  7 active torsions:
REMARK  status: ('A' for Active; 'I' for Inactive)
REMARK    1  A    between atoms: C3_3  and  O5_20
REMARK    2  A    between atoms: C6_6  and  C7_7
REMARK    3  A    between atoms: C8_8  and  C9_9
REMARK    4  A    between atoms: C9_9  and  C10_11
REMARK    5  A    between atoms: C11_12  and  O4_19
REMARK    6  A    between atoms: C13_14  and  O3_18
REMARK    7  A    between atoms: C15_16  and  O2_17
REMARK                            x       y       z     vdW  Elec       q    Type
REMARK                         _______ _______ _______ _____ _____    ______ ____
ROOT
ATOM      1  C9  UNL     1      29.067  28.743  62.782  0.00  0.00    +0.193 C 
ATOM      2  O1  UNL     1      29.598  29.410  61.892  0.00  0.00    -0.287 OA
ENDROOT
BRANCH   1   3
ATOM      3  C10 UNL     1      29.433  27.309  62.909  0.00  0.00    +0.104 A 
ATOM      4  C11 UNL     1      30.611  26.987  63.611  0.00  0.00    +0.135 A 
ATOM      5  C12 UNL     1      31.004  25.662  63.801  0.00  0.00    +0.091 A 
ATOM      6  C13 UNL     1      30.229  24.645  63.262  0.00  0.00    +0.124 A 
ATOM      7  C14 UNL     1      29.081  24.931  62.531  0.00  0.00    +0.091 A 
ATOM      8  C15 UNL     1      28.688  26.260  62.348  0.00  0.00    +0.135 A 
BRANCH   8   9
ATOM      9  O2  UNL     1      27.584  26.513  61.581  0.00  0.00    -0.506 OA
ATOM     10  H9  UNL     1      27.849  27.000  60.782  0.00  0.00    +0.292 HD
ENDBRANCH   8   9
BRANCH   6  11
ATOM     11  O3  UNL     1      30.571  23.334  63.416  0.00  0.00    -0.507 OA
ATOM     12  H10 UNL     1      30.280  23.036  64.295  0.00  0.00    +0.292 HD
ENDBRANCH   6  11
BRANCH   4  13
ATOM     13  O4  UNL     1      31.444  27.936  64.149  0.00  0.00    -0.506 OA
ATOM     14  H11 UNL     1      32.276  27.941  63.621  0.00  0.00    +0.292 HD
ENDBRANCH   4  13
ENDBRANCH   1   3
BRANCH   1  16
ATOM     15  C7  UNL     1      28.576  30.432  64.483  0.00  0.00    +0.012 C 
ATOM     16  C8  UNL     1      28.161  29.364  63.784  0.00  0.00    +0.052 C 
BRANCH  15  22
ATOM     17  C1  UNL     1      28.389  32.014  66.372  0.00  0.00    +0.011 A 
ATOM     18  C2  UNL     1      27.659  32.675  67.365  0.00  0.00    +0.046 A 
ATOM     19  C3  UNL     1      26.295  32.432  67.484  0.00  0.00    +0.117 A 
ATOM     20  C4  UNL     1      25.656  31.539  66.634  0.00  0.00    +0.046 A 
ATOM     21  C5  UNL     1      26.387  30.880  65.643  0.00  0.00    +0.011 A 
ATOM     22  C6  UNL     1      27.761  31.121  65.492  0.00  0.00    -0.025 A 
BRANCH  19  23
ATOM     23  O5  UNL     1      25.543  33.052  68.437  0.00  0.00    -0.507 OA
ATOM     24  H12 UNL     1      24.786  32.483  68.653  0.00  0.00    +0.292 HD
ENDBRANCH  19  23
ENDBRANCH  15  22
ENDBRANCH   1  16
TORSDOF 7
ENDMDL
MODEL 2
REMARK VINA RESULT:    -7.728      1.784      3.132
REMARK INTER + INTRA:         -10.653
REMARK INTER:                 -10.237
REMARK INTRA:                  -0.417
REMARK UNBOUND:                -0.667
REMARK  Name = data/mahkota_dewa_dn/results/docking/ligands/pdb/Naringeninchalcone.pdb
REMARK  7 active torsions:
REMARK  status: ('A' for Active; 'I' for Inactive)
REMARK    1  A    between atoms: C3_3  and  O5_20
REMARK    2  A    between atoms: C6_6  and  C7_7
REMARK    3  A    between atoms: C8_8  and  C9_9
REMARK    4  A    between atoms: C9_9  and  C10_11
REMARK    5  A    between atoms: C11_12  and  O4_19
REMARK    6  A    between atoms: C13_14  and  O3_18
REMARK    7  A    between atoms: C15_16  and  O2_17
REMARK                            x       y       z     vdW  Elec       q    Type
REMARK                         _______ _______ _______ _____ _____    ______ ____
ROOT
ATOM      1  C9  UNL     1      26.963  30.187  63.683  0.00  0.00    +0.193 C 
ATOM      2  O1  UNL     1      26.112  30.541  62.866  0.00  0.00    -0.287 OA
ENDROOT
BRANCH   1   3
ATOM      3  C10 UNL     1      27.931  29.131  63.288  0.00  0.00    +0.104 A 
ATOM      4  C11 UNL     1      27.419  27.886  62.877  0.00  0.00    +0.135 A 
ATOM      5  C12 UNL     1      28.262  26.856  62.459  0.00  0.00    +0.091 A 
ATOM      6  C13 UNL     1      29.635  27.059  62.478  0.00  0.00    +0.124 A 
ATOM      7  C14 UNL     1      30.174  28.265  62.915  0.00  0.00    +0.091 A 
ATOM      8  C15 UNL     1      29.325  29.296  63.328  0.00  0.00    +0.135 A 
BRANCH   8   9
ATOM      9  O2  UNL     1      29.884  30.450  63.801  0.00  0.00    -0.506 OA
ATOM     10  H9  UNL     1      30.757  30.578  63.391  0.00  0.00    +0.292 HD
ENDBRANCH   8   9
BRANCH   6  11
ATOM     11  O3  UNL     1      30.503  26.084  62.084  0.00  0.00    -0.507 OA
ATOM     12  H10 UNL     1      31.403  26.452  62.073  0.00  0.00    +0.292 HD
ENDBRANCH   6  11
BRANCH   4  13
ATOM     13  O4  UNL     1      26.077  27.598  62.858  0.00  0.00    -0.506 OA
ATOM     14  H11 UNL     1      25.627  28.222  63.472  0.00  0.00    +0.292 HD
ENDBRANCH   4  13
ENDBRANCH   1   3
BRANCH   1  16
ATOM     15  C7  UNL     1      26.022  31.045  65.772  0.00  0.00    +0.012 C 
ATOM     16  C8  UNL     1      27.104  30.861  65.002  0.00  0.00    +0.052 C 
BRANCH  15  22
ATOM     17  C1  UNL     1      27.179  32.450  67.444  0.00  0.00    +0.011 A 
ATOM     18  C2  UNL     1      27.263  33.065  68.697  0.00  0.00    +0.046 A 
ATOM     19  C3  UNL     1      26.220  32.915  69.603  0.00  0.00    +0.117 A 
ATOM     20  C4  UNL     1      25.102  32.158  69.278  0.00  0.00    +0.046 A 
ATOM     21  C5  UNL     1      25.018  31.543  68.027  0.00  0.00    +0.011 A 
ATOM     22  C6  UNL     1      26.051  31.694  67.090  0.00  0.00    -0.025 A 
BRANCH  19  23
ATOM     23  O5  UNL     1      26.259  33.496  70.835  0.00  0.00    -0.507 OA
ATOM     24  H12 UNL     1      25.395  33.373  71.263  0.00  0.00    +0.292 HD
ENDBRANCH  19  23
ENDBRANCH  15  22
ENDBRANCH   1  16
TORSDOF 7
ENDMDL
MODEL 3
REMARK VINA RESULT:    -7.723      2.138      7.509
REMARK INTER + INTRA:         -10.648
REMARK INTER:                 -10.405
REMARK INTRA:                  -0.242
REMARK UNBOUND:                -0.667
REMARK  Name = data/mahkota_dewa_dn/results/docking/ligands/pdb/Naringeninchalcone.pdb
REMARK  7 active torsions:
REMARK  status: ('A' for Active; 'I' for Inactive)
REMARK    1  A    between atoms: C3_3  and  O5_20
REMARK    2  A    between atoms: C6_6  and  C7_7
REMARK    3  A    between atoms: C8_8  and  C9_9
REMARK    4  A    between atoms: C9_9  and  C10_11
REMARK    5  A    between atoms: C11_12  and  O4_19
REMARK    6  A    between atoms: C13_14  and  O3_18
REMARK    7  A    between atoms: C15_16  and  O2_17
REMARK                            x       y       z     vdW  Elec       q    Type
REMARK                         _______ _______ _______ _____ _____    ______ ____
ROOT
ATOM      1  C9  UNL     1      27.920  32.024  65.585  0.00  0.00    +0.193 C 
ATOM      2  O1  UNL     1      28.586  32.970  65.162  0.00  0.00    -0.287 OA
ENDROOT
BRANCH   1   3
ATOM      3  C10 UNL     1      27.273  32.150  66.917  0.00  0.00    +0.104 A 
ATOM      4  C11 UNL     1      28.042  32.663  67.978  0.00  0.00    +0.135 A 
ATOM      5  C12 UNL     1      27.497  32.843  69.250  0.00  0.00    +0.091 A 
ATOM      6  C13 UNL     1      26.176  32.480  69.474  0.00  0.00    +0.124 A 
ATOM      7  C14 UNL     1      25.400  31.936  68.456  0.00  0.00    +0.091 A 
ATOM      8  C15 UNL     1      25.950  31.763  67.182  0.00  0.00    +0.135 A 
BRANCH   8   9
ATOM      9  O2  UNL     1      25.181  31.177  66.215  0.00  0.00    -0.506 OA
ATOM     10  H9  UNL     1      24.907  31.849  65.567  0.00  0.00    +0.292 HD
ENDBRANCH   8   9
BRANCH   6  11
ATOM     11  O3  UNL     1      25.596  32.632  70.699  0.00  0.00    -0.507 OA
ATOM     12  H10 UNL     1      25.384  31.753  71.056  0.00  0.00    +0.292 HD
ENDBRANCH   6  11
BRANCH   4  13
ATOM     13  O4  UNL     1      29.362  33.017  67.844  0.00  0.00    -0.506 OA
ATOM     14  H11 UNL     1      29.393  33.953  67.540  0.00  0.00    +0.292 HD
ENDBRANCH   4  13
ENDBRANCH   1   3
BRANCH   1  16
ATOM     15  C7  UNL     1      28.703  30.095  64.299  0.00  0.00    +0.012 C 
ATOM     16  C8  UNL     1      27.667  30.817  64.754  0.00  0.00    +0.052 C 
BRANCH  15  22
ATOM     17  C1  UNL     1      27.400  28.723  62.709  0.00  0.00    +0.011 A 
ATOM     18  C2  UNL     1      27.212  27.578  61.930  0.00  0.00    +0.046 A 
ATOM     19  C3  UNL     1      28.187  26.587  61.925  0.00  0.00    +0.117 A 
ATOM     20  C4  UNL     1      29.339  26.721  62.690  0.00  0.00    +0.046 A 
ATOM     21  C5  UNL     1      29.526  27.866  63.469  0.00  0.00    +0.011 A 
ATOM     22  C6  UNL     1      28.564  28.886  63.475  0.00  0.00    -0.025 A 
BRANCH  19  23
ATOM     23  O5  UNL     1      28.047  25.453  61.182  0.00  0.00    -0.507 OA
ATOM     24  H12 UNL     1      27.262  24.973  61.494  0.00  0.00    +0.292 HD
ENDBRANCH  19  23
ENDBRANCH  15  22
ENDBRANCH   1  16
TORSDOF 7
ENDMDL
MODEL 4
REMARK VINA RESULT:    -7.635      0.140      1.881
REMARK INTER + INTRA:         -10.533
REMARK INTER:                  -9.954
REMARK INTRA:                  -0.579
REMARK UNBOUND:                -0.667
REMARK  Name = data/mahkota_dewa_dn/results/docking/ligands/pdb/Naringeninchalcone.pdb
REMARK  7 active torsions:
REMARK  status: ('A' for Active; 'I' for Inactive)
REMARK    1  A    between atoms: C3_3  and  O5_20
REMARK    2  A    between atoms: C6_6  and  C7_7
REMARK    3  A    between atoms: C8_8  and  C9_9
REMARK    4  A    between atoms: C9_9  and  C10_11
REMARK    5  A    between atoms: C11_12  and  O4_19
REMARK    6  A    between atoms: C13_14  and  O3_18
REMARK    7  A    between atoms: C15_16  and  O2_17
REMARK                            x       y       z     vdW  Elec       q    Type
REMARK                         _______ _______ _______ _____ _____    ______ ____
ROOT
ATOM      1  C9  UNL     1      29.107  28.781  62.732  0.00  0.00    +0.193 C 
ATOM      2  O1  UNL     1      29.582  29.395  61.775  0.00  0.00    -0.287 OA
ENDROOT
BRANCH   1   3
ATOM      3  C10 UNL     1      29.530  27.374  62.953  0.00  0.00    +0.104 A 
ATOM      4  C11 UNL     1      28.724  26.351  62.418  0.00  0.00    +0.135 A 
ATOM      5  C12 UNL     1      29.072  25.006  62.555  0.00  0.00    +0.091 A 
ATOM      6  C13 UNL     1      30.222  24.675  63.257  0.00  0.00    +0.124 A 
ATOM      7  C14 UNL     1      31.020  25.661  63.830  0.00  0.00    +0.091 A 
ATOM      8  C15 UNL     1      30.670  27.007  63.686  0.00  0.00    +0.135 A 
BRANCH   8   9
ATOM      9  O2  UNL     1      31.443  27.950  64.303  0.00  0.00    -0.506 OA
ATOM     10  H9  UNL     1      32.381  27.705  64.221  0.00  0.00    +0.292 HD
ENDBRANCH   8   9
BRANCH   6  11
ATOM     11  O3  UNL     1      30.604  23.377  63.423  0.00  0.00    -0.507 OA
ATOM     12  H10 UNL     1      29.858  22.799  63.190  0.00  0.00    +0.292 HD
ENDBRANCH   6  11
BRANCH   4  13
ATOM     13  O4  UNL     1      27.558  26.595  61.736  0.00  0.00    -0.506 OA
ATOM     14  H11 UNL     1      27.591  27.523  61.408  0.00  0.00    +0.292 HD
ENDBRANCH   4  13
ENDBRANCH   1   3
BRANCH   1  16
ATOM     15  C7  UNL     1      28.694  30.434  64.487  0.00  0.00    +0.012 C 
ATOM     16  C8  UNL     1      28.214  29.446  63.717  0.00  0.00    +0.052 C 
BRANCH  15  22
ATOM     17  C1  UNL     1      28.545  32.070  66.334  0.00  0.00    +0.011 A 
ATOM     18  C2  UNL     1      27.833  32.763  67.317  0.00  0.00    +0.046 A 
ATOM     19  C3  UNL     1      26.469  32.535  67.462  0.00  0.00    +0.117 A 
ATOM     20  C4  UNL     1      25.812  31.624  66.645  0.00  0.00    +0.046 A 
ATOM     21  C5  UNL     1      26.524  30.932  65.662  0.00  0.00    +0.011 A 
ATOM     22  C6  UNL     1      27.898  31.158  65.487  0.00  0.00    -0.025 A 
BRANCH  19  23
ATOM     23  O5  UNL     1      25.735  33.186  68.406  0.00  0.00    -0.507 OA
ATOM     24  H12 UNL     1      26.301  33.846  68.839  0.00  0.00    +0.292 HD
ENDBRANCH  19  23
ENDBRANCH  15  22
ENDBRANCH   1  16
TORSDOF 7
ENDMDL
MODEL 5
REMARK VINA RESULT:    -7.550      5.367      8.238
REMARK INTER + INTRA:         -10.423
REMARK INTER:                  -9.761
REMARK INTRA:                  -0.663
REMARK UNBOUND:                -0.667
REMARK  Name = data/mahkota_dewa_dn/results/docking/ligands/pdb/Naringeninchalcone.pdb
REMARK  7 active torsions:
REMARK  status: ('A' for Active; 'I' for Inactive)
REMARK    1  A    between atoms: C3_3  and  O5_20
REMARK    2  A    between atoms: C6_6  and  C7_7
REMARK    3  A    between atoms: C8_8  and  C9_9
REMARK    4  A    between atoms: C9_9  and  C10_11
REMARK    5  A    between atoms: C11_12  and  O4_19
REMARK    6  A    between atoms: C13_14  and  O3_18
REMARK    7  A    between atoms: C15_16  and  O2_17
REMARK                            x       y       z     vdW  Elec       q    Type
REMARK                         _______ _______ _______ _____ _____    ______ ____
ROOT
ATOM      1  C9  UNL     1      31.669  34.382  67.410  0.00  0.00    +0.193 C 
ATOM      2  O1  UNL     1      31.269  34.936  68.435  0.00  0.00    -0.287 OA
ENDROOT
BRANCH   1   3
ATOM      3  C10 UNL     1      32.928  34.868  66.786  0.00  0.00    +0.104 A 
ATOM      4  C11 UNL     1      34.107  34.815  67.553  0.00  0.00    +0.135 A 
ATOM      5  C12 UNL     1      35.334  35.221  67.027  0.00  0.00    +0.091 A 
ATOM      6  C13 UNL     1      35.382  35.712  65.729  0.00  0.00    +0.124 A 
ATOM      7  C14 UNL     1      34.228  35.813  64.959  0.00  0.00    +0.091 A 
ATOM      8  C15 UNL     1      33.002  35.400  65.489  0.00  0.00    +0.135 A 
BRANCH   8   9
ATOM      9  O2  UNL     1      31.877  35.559  64.728  0.00  0.00    -0.506 OA
ATOM     10  H9  UNL     1      32.004  36.302  64.114  0.00  0.00    +0.292 HD
ENDBRANCH   8   9
BRANCH   6  11
ATOM     11  O3  UNL     1      36.555  36.125  65.169  0.00  0.00    -0.507 OA
ATOM     12  H10 UNL     1      37.216  35.421  65.274  0.00  0.00    +0.292 HD
ENDBRANCH   6  11
BRANCH   4  13
ATOM     13  O4  UNL     1      34.137  34.369  68.851  0.00  0.00    -0.506 OA
ATOM     14  H11 UNL     1      33.594  34.986  69.393  0.00  0.00    +0.292 HD
ENDBRANCH   4  13
ENDBRANCH   1   3
BRANCH   1  16
ATOM     15  C7  UNL     1      29.716  33.288  66.423  0.00  0.00    +0.012 C 
ATOM     16  C8  UNL     1      30.983  33.186  66.852  0.00  0.00    +0.052 C 
BRANCH  15  22
ATOM     17  C1  UNL     1      29.594  31.292  64.970  0.00  0.00    +0.011 A 
ATOM     18  C2  UNL     1      28.899  30.231  64.383  0.00  0.00    +0.046 A 
ATOM     19  C3  UNL     1      27.550  30.055  64.672  0.00  0.00    +0.117 A 
ATOM     20  C4  UNL     1      26.889  30.924  65.530  0.00  0.00    +0.046 A 
ATOM     21  C5  UNL     1      27.585  31.985  66.116  0.00  0.00    +0.011 A 
ATOM     22  C6  UNL     1      28.950  32.172  65.852  0.00  0.00    -0.025 A 
BRANCH  19  23
ATOM     23  O5  UNL     1      26.832  29.035  64.123  0.00  0.00    -0.507 OA
ATOM     24  H12 UNL     1      26.736  28.332  64.786  0.00  0.00    +0.292 HD
ENDBRANCH  19  23
ENDBRANCH  15  22
ENDBRANCH   1  16
TORSDOF 7
ENDMDL
MODEL 6
REMARK VINA RESULT:    -7.540      5.421      8.367
REMARK INTER + INTRA:         -10.410
REMARK INTER:                  -9.787
REMARK INTRA:                  -0.623
REMARK UNBOUND:                -0.667
REMARK  Name = data/mahkota_dewa_dn/results/docking/ligands/pdb/Naringeninchalcone.pdb
REMARK  7 active torsions:
REMARK  status: ('A' for Active; 'I' for Inactive)
REMARK    1  A    between atoms: C3_3  and  O5_20
REMARK    2  A    between atoms: C6_6  and  C7_7
REMARK    3  A    between atoms: C8_8  and  C9_9
REMARK    4  A    between atoms: C9_9  and  C10_11
REMARK    5  A    between atoms: C11_12  and  O4_19
REMARK    6  A    between atoms: C13_14  and  O3_18
REMARK    7  A    between atoms: C15_16  and  O2_17
REMARK                            x       y       z     vdW  Elec       q    Type
REMARK                         _______ _______ _______ _____ _____    ______ ____
ROOT
ATOM      1  C9  UNL     1      32.417  33.654  65.357  0.00  0.00    +0.193 C 
ATOM      2  O1  UNL     1      33.065  32.857  64.676  0.00  0.00    -0.287 OA
ENDROOT
BRANCH   1   3
ATOM      3  C10 UNL     1      33.096  34.880  65.851  0.00  0.00    +0.104 A 
ATOM      4  C11 UNL     1      33.570  35.802  64.898  0.00  0.00    +0.135 A 
ATOM      5  C12 UNL     1      34.187  36.992  65.283  0.00  0.00    +0.091 A 
ATOM      6  C13 UNL     1      34.360  37.255  66.635  0.00  0.00    +0.124 A 
ATOM      7  C14 UNL     1      33.937  36.348  67.601  0.00  0.00    +0.091 A 
ATOM      8  C15 UNL     1      33.314  35.158  67.209  0.00  0.00    +0.135 A 
BRANCH   8   9
ATOM      9  O2  UNL     1      32.956  34.262  68.178  0.00  0.00    -0.506 OA
ATOM     10  H9  UNL     1      32.708  33.418  67.763  0.00  0.00    +0.292 HD
ENDBRANCH   8   9
BRANCH   6  11
ATOM     11  O3  UNL     1      34.960  38.402  67.064  0.00  0.00    -0.507 OA
ATOM     12  H10 UNL     1      34.567  38.661  67.915  0.00  0.00    +0.292 HD
ENDBRANCH   6  11
BRANCH   4  13
ATOM     13  O4  UNL     1      33.462  35.601  63.544  0.00  0.00    -0.506 OA
ATOM     14  H11 UNL     1      34.136  36.166  63.102  0.00  0.00    +0.292 HD
ENDBRANCH   4  13
ENDBRANCH   1   3
BRANCH   1  16
ATOM     15  C7  UNL     1      30.442  32.230  65.591  0.00  0.00    +0.012 C 
ATOM     16  C8  UNL     1      30.962  33.466  65.602  0.00  0.00    +0.052 C 
BRANCH  15  22
ATOM     17  C1  UNL     1      28.392  30.973  65.020  0.00  0.00    +0.011 A 
ATOM     18  C2  UNL     1      27.036  30.676  65.188  0.00  0.00    +0.046 A 
ATOM     19  C3  UNL     1      26.304  31.353  66.157  0.00  0.00    +0.117 A 
ATOM     20  C4  UNL     1      26.904  32.320  66.952  0.00  0.00    +0.046 A 
ATOM     21  C5  UNL     1      28.259  32.616  66.783  0.00  0.00    +0.011 A 
ATOM     22  C6  UNL     1      29.021  31.934  65.824  0.00  0.00    -0.025 A 
BRANCH  19  23
ATOM     23  O5  UNL     1      24.980  31.098  66.356  0.00  0.00    -0.507 OA
ATOM     24  H12 UNL     1      24.864  30.743  67.253  0.00  0.00    +0.292 HD
ENDBRANCH  19  23
ENDBRANCH  15  22
ENDBRANCH   1  16
TORSDOF 7
ENDMDL
MODEL 7
REMARK VINA RESULT:    -7.539      2.323      7.581
REMARK INTER + INTRA:         -10.410
REMARK INTER:                  -9.944
REMARK INTRA:                  -0.466
REMARK UNBOUND:                -0.667
REMARK  Name = data/mahkota_dewa_dn/results/docking/ligands/pdb/Naringeninchalcone.pdb
REMARK  7 active torsions:
REMARK  status: ('A' for Active; 'I' for Inactive)
REMARK    1  A    between atoms: C3_3  and  O5_20
REMARK    2  A    between atoms: C6_6  and  C7_7
REMARK    3  A    between atoms: C8_8  and  C9_9
REMARK    4  A    between atoms: C9_9  and  C10_11
REMARK    5  A    between atoms: C11_12  and  O4_19
REMARK    6  A    between atoms: C13_14  and  O3_18
REMARK    7  A    between atoms: C15_16  and  O2_17
REMARK                            x       y       z     vdW  Elec       q    Type
REMARK                         _______ _______ _______ _____ _____    ______ ____
ROOT
ATOM      1  C9  UNL     1      28.245  32.741  66.241  0.00  0.00    +0.193 C 
ATOM      2  O1  UNL     1      28.355  33.874  65.768  0.00  0.00    -0.287 OA
ENDROOT
BRANCH   1   3
ATOM      3  C10 UNL     1      27.059  32.435  67.082  0.00  0.00    +0.104 A 
ATOM      4  C11 UNL     1      27.040  32.926  68.401  0.00  0.00    +0.135 A 
ATOM      5  C12 UNL     1      25.948  32.709  69.241  0.00  0.00    +0.091 A 
ATOM      6  C13 UNL     1      24.872  31.969  68.771  0.00  0.00    +0.124 A 
ATOM      7  C14 UNL     1      24.875  31.439  67.485  0.00  0.00    +0.091 A 
ATOM      8  C15 UNL     1      25.971  31.663  66.645  0.00  0.00    +0.135 A 
BRANCH   8   9
ATOM      9  O2  UNL     1      25.969  31.086  65.406  0.00  0.00    -0.506 OA
ATOM     10  H9  UNL     1      25.157  30.563  65.292  0.00  0.00    +0.292 HD
ENDBRANCH   8   9
BRANCH   6  11
ATOM     11  O3  UNL     1      23.782  31.726  69.553  0.00  0.00    -0.507 OA
ATOM     12  H10 UNL     1      22.983  31.778  69.001  0.00  0.00    +0.292 HD
ENDBRANCH   6  11
BRANCH   4  13
ATOM     13  O4  UNL     1      28.077  33.641  68.948  0.00  0.00    -0.506 OA
ATOM     14  H11 UNL     1      28.099  33.447  69.913  0.00  0.00    +0.292 HD
ENDBRANCH   4  13
ENDBRANCH   1   3
BRANCH   1  16
ATOM     15  C7  UNL     1      29.059  30.971  64.761  0.00  0.00    +0.012 C 
ATOM     16  C8  UNL     1      29.208  31.660  65.903  0.00  0.00    +0.052 C 
BRANCH  15  22
ATOM     17  C1  UNL     1      29.439  28.871  63.515  0.00  0.00    +0.011 A 
ATOM     18  C2  UNL     1      30.246  27.807  63.103  0.00  0.00    +0.046 A 
ATOM     19  C3  UNL     1      31.572  27.754  63.517  0.00  0.00    +0.117 A 
ATOM     20  C4  UNL     1      32.098  28.742  64.339  0.00  0.00    +0.046 A 
ATOM     21  C5  UNL     1      31.290  29.805  64.751  0.00  0.00    +0.011 A 
ATOM     22  C6  UNL     1      29.954  29.888  64.332  0.00  0.00    -0.025 A 
BRANCH  19  23
ATOM     23  O5  UNL     1      32.395  26.736  63.140  0.00  0.00    -0.507 OA
ATOM     24  H12 UNL     1      32.860  26.406  63.927  0.00  0.00    +0.292 HD
ENDBRANCH  19  23
ENDBRANCH  15  22
ENDBRANCH   1  16
TORSDOF 7
ENDMDL
MODEL 8
REMARK VINA RESULT:    -7.400      5.365      8.244
REMARK INTER + INTRA:         -10.230
REMARK INTER:                  -9.730
REMARK INTRA:                  -0.500
REMARK UNBOUND:                -0.667
REMARK  Name = data/mahkota_dewa_dn/results/docking/ligands/pdb/Naringeninchalcone.pdb
REMARK  7 active torsions:
REMARK  status: ('A' for Active; 'I' for Inactive)
REMARK    1  A    between atoms: C3_3  and  O5_20
REMARK    2  A    between atoms: C6_6  and  C7_7
REMARK    3  A    between atoms: C8_8  and  C9_9
REMARK    4  A    between atoms: C9_9  and  C10_11
REMARK    5  A    between atoms: C11_12  and  O4_19
REMARK    6  A    between atoms: C13_14  and  O3_18
REMARK    7  A    between atoms: C15_16  and  O2_17
REMARK                            x       y       z     vdW  Elec       q    Type
REMARK                         _______ _______ _______ _____ _____    ______ ____
ROOT
ATOM      1  C9  UNL     1      31.758  35.028  67.586  0.00  0.00    +0.193 C 
ATOM      2  O1  UNL     1      31.565  35.835  68.496  0.00  0.00    -0.287 OA
ENDROOT
BRANCH   1   3
ATOM      3  C10 UNL     1      33.087  35.011  66.923  0.00  0.00    +0.104 A 
ATOM      4  C11 UNL     1      33.143  35.312  65.548  0.00  0.00    +0.135 A 
ATOM      5  C12 UNL     1      34.357  35.349  64.862  0.00  0.00    +0.091 A 
ATOM      6  C13 UNL     1      35.528  35.055  65.547  0.00  0.00    +0.124 A 
ATOM      7  C14 UNL     1      35.503  34.716  66.896  0.00  0.00    +0.091 A 
ATOM      8  C15 UNL     1      34.284  34.686  67.580  0.00  0.00    +0.135 A 
BRANCH   8   9
ATOM      9  O2  UNL     1      34.284  34.299  68.892  0.00  0.00    -0.506 OA
ATOM     10  H9  UNL     1      34.074  35.064  69.455  0.00  0.00    +0.292 HD
ENDBRANCH   8   9
BRANCH   6  11
ATOM     11  O3  UNL     1      36.740  35.073  64.922  0.00  0.00    -0.507 OA
ATOM     12  H10 UNL     1      36.762  34.360  64.262  0.00  0.00    +0.292 HD
ENDBRANCH   6  11
BRANCH   4  13
ATOM     13  O4  UNL     1      32.028  35.586  64.796  0.00  0.00    -0.506 OA
ATOM     14  H11 UNL     1      31.337  34.925  65.031  0.00  0.00    +0.292 HD
ENDBRANCH   4  13
ENDBRANCH   1   3
BRANCH   1  16
ATOM     15  C7  UNL     1      29.447  34.228  67.519  0.00  0.00    +0.012 C 
ATOM     16  C8  UNL     1      30.736  34.012  67.216  0.00  0.00    +0.052 C 
BRANCH  15  22
ATOM     17  C1  UNL     1      28.527  32.410  66.120  0.00  0.00    +0.011 A 
ATOM     18  C2  UNL     1      27.511  31.520  65.759  0.00  0.00    +0.046 A 
ATOM     19  C3  UNL     1      26.317  31.522  66.472  0.00  0.00    +0.117 A 
ATOM     20  C4  UNL     1      26.125  32.399  67.531  0.00  0.00    +0.046 A 
ATOM     21  C5  UNL     1      27.141  33.288  67.890  0.00  0.00    +0.011 A 
ATOM     22  C6  UNL     1      28.360  33.293  67.196  0.00  0.00    -0.025 A 
BRANCH  19  23
ATOM     23  O5  UNL     1      25.299  30.673  66.157  0.00  0.00    -0.507 OA
ATOM     24  H12 UNL     1      25.594  29.762  66.317  0.00  0.00    +0.292 HD
ENDBRANCH  19  23
ENDBRANCH  15  22
ENDBRANCH   1  16
TORSDOF 7
ENDMDL
MODEL 9
REMARK VINA RESULT:    -7.265      5.627      8.505
REMARK INTER + INTRA:         -10.056
REMARK INTER:                  -9.583
REMARK INTRA:                  -0.473
REMARK UNBOUND:                -0.667
REMARK  Name = data/mahkota_dewa_dn/results/docking/ligands/pdb/Naringeninchalcone.pdb
REMARK  7 active torsions:
REMARK  status: ('A' for Active; 'I' for Inactive)
REMARK    1  A    between atoms: C3_3  and  O5_20
REMARK    2  A    between atoms: C6_6  and  C7_7
REMARK    3  A    between atoms: C8_8  and  C9_9
REMARK    4  A    between atoms: C9_9  and  C10_11
REMARK    5  A    between atoms: C11_12  and  O4_19
REMARK    6  A    between atoms: C13_14  and  O3_18
REMARK    7  A    between atoms: C15_16  and  O2_17
REMARK                            x       y       z     vdW  Elec       q    Type
REMARK                         _______ _______ _______ _____ _____    ______ ____
ROOT
ATOM      1  C9  UNL     1      32.406  33.990  65.807  0.00  0.00    +0.193 C 
ATOM      2  O1  UNL     1      32.882  33.174  65.017  0.00  0.00    -0.287 OA
ENDROOT
BRANCH   1   3
ATOM      3  C10 UNL     1      33.218  35.179  66.176  0.00  0.00    +0.104 A 
ATOM      4  C11 UNL     1      33.567  35.345  67.530  0.00  0.00    +0.135 A 
ATOM      5  C12 UNL     1      34.355  36.417  67.950  0.00  0.00    +0.091 A 
ATOM      6  C13 UNL     1      34.778  37.351  67.014  0.00  0.00    +0.124 A 
ATOM      7  C14 UNL     1      34.419  37.235  65.675  0.00  0.00    +0.091 A 
ATOM      8  C15 UNL     1      33.633  36.156  65.258  0.00  0.00    +0.135 A 
BRANCH   8   9
ATOM      9  O2  UNL     1      33.252  36.097  63.946  0.00  0.00    -0.506 OA
ATOM     10  H9  UNL     1      33.933  35.630  63.432  0.00  0.00    +0.292 HD
ENDBRANCH   8   9
BRANCH   6  11
ATOM     11  O3  UNL     1      35.547  38.418  67.373  0.00  0.00    -0.507 OA
ATOM     12  H10 UNL     1      36.242  38.542  66.705  0.00  0.00    +0.292 HD
ENDBRANCH   6  11
BRANCH   4  13
ATOM     13  O4  UNL     1      33.164  34.482  68.518  0.00  0.00    -0.506 OA
ATOM     14  H11 UNL     1      32.201  34.620  68.664  0.00  0.00    +0.292 HD
ENDBRANCH   4  13
ENDBRANCH   1   3
BRANCH   1  16
ATOM     15  C7  UNL     1      30.240  32.855  65.880  0.00  0.00    +0.012 C 
ATOM     16  C8  UNL     1      31.011  33.866  66.309  0.00  0.00    +0.052 C 
BRANCH  15  22
ATOM     17  C1  UNL     1      28.360  33.384  67.395  0.00  0.00    +0.011 A 
ATOM     18  C2  UNL     1      27.056  33.194  67.860  0.00  0.00    +0.046 A 
ATOM     19  C3  UNL     1      26.244  32.247  67.248  0.00  0.00    +0.117 A 
ATOM     20  C4  UNL     1      26.717  31.486  66.187  0.00  0.00    +0.046 A 
ATOM     21  C5  UNL     1      28.021  31.676  65.723  0.00  0.00    +0.011 A 
ATOM     22  C6  UNL     1      28.853  32.638  66.314  0.00  0.00    -0.025 A 
BRANCH  19  23
ATOM     23  O5  UNL     1      24.966  32.027  67.667  0.00  0.00    -0.507 OA
ATOM     24  H12 UNL     1      24.782  32.611  68.421  0.00  0.00    +0.292 HD
ENDBRANCH  19  23
ENDBRANCH  15  22
ENDBRANCH   1  16
TORSDOF 7
ENDMDL
