MODEL 1
REMARK VINA RESULT:    -9.137      0.000      0.000
REMARK INTER + INTRA:         -13.228
REMARK INTER:                 -12.342
REMARK INTRA:                  -0.886
REMARK UNBOUND:                -0.886
REMARK  Name = data/mahkota_dewa_dn/results/docking/ligands/pdb/264-trihydroxy-4-methoxybenzophenone.pdb
REMARK  8 active torsions:
REMARK  status: ('A' for Active; 'I' for Inactive)
REMARK    1  A    between atoms: C1_1  and  O1_2
REMARK    2  A    between atoms: O1_2  and  C2_3
REMARK    3  A    between atoms: C8_10  and  C9_12
REMARK    4  A    between atoms: C12_15  and  O4_18
REMARK    5  A    between atoms: O4_18  and  C15_19
REMARK    6  A    between atoms: C15_19  and  C16_20
REMARK    7  A    between atoms: C22_26  and  O5_28
REMARK    8  A    between atoms: O5_28  and  C24_29
REMARK                            x       y       z     vdW  Elec       q    Type
REMARK                         _______ _______ _______ _____ _____    ______ ____
ROOT
ATOM      1  C2  UNL     1      34.262  35.946  64.538  0.00  0.00    +0.127 A 
ATOM      2  C3  UNL     1      33.319  34.954  64.289  0.00  0.00    +0.092 A 
ATOM      3  C4  UNL     1      32.507  34.491  65.327  0.00  0.00    +0.139 A 
ATOM      4  C5  UNL     1      32.651  34.988  66.630  0.00  0.00    +0.101 A 
ATOM      5  C6  UNL     1      31.793  34.384  67.690  0.00  0.00    +0.174 C 
ATOM      6  O2  UNL     1      31.752  34.797  68.844  0.00  0.00    -0.292 OA
ATOM      7  C7  UNL     1      30.986  33.183  67.284  0.00  0.00    +0.129 C 
ATOM      8  C8  UNL     1      30.495  33.415  65.868  0.00  0.00    +0.211 C 
ATOM      9  O3  UNL     1      31.607  33.519  64.967  0.00  0.00    -0.483 OA
ATOM     10  C22 UNL     1      33.601  35.991  66.890  0.00  0.00    +0.138 A 
ATOM     11  C23 UNL     1      34.393  36.460  65.833  0.00  0.00    +0.092 A 
ENDROOT
BRANCH   8  12
ATOM     12  C9  UNL     1      29.605  32.273  65.412  0.00  0.00    -0.007 A 
ATOM     13  C10 UNL     1      28.263  32.189  65.810  0.00  0.00    +0.011 A 
ATOM     14  C11 UNL     1      27.444  31.145  65.363  0.00  0.00    +0.046 A 
ATOM     15  C12 UNL     1      27.955  30.169  64.510  0.00  0.00    +0.121 A 
ATOM     16  C13 UNL     1      29.286  30.258  64.094  0.00  0.00    +0.046 A 
ATOM     17  C14 UNL     1      30.107  31.297  64.540  0.00  0.00    +0.011 A 
BRANCH  15  18
ATOM     18  O4  UNL     1      27.265  29.109  63.990  0.00  0.00    -0.487 OA
BRANCH  18  19
ATOM     19  C15 UNL     1      27.039  29.078  62.578  0.00  0.00    +0.264 C 
BRANCH  19  20
ATOM     20  C16 UNL     1      25.665  29.567  62.173  0.00  0.00    -0.010 A 
ATOM     21  C17 UNL     1      24.654  28.674  61.791  0.00  0.00    +0.007 A 
ATOM     22  C18 UNL     1      23.385  29.142  61.447  0.00  0.00    +0.000 A 
ATOM     23  C19 UNL     1      23.109  30.508  61.491  0.00  0.00    +0.000 A 
ATOM     24  C20 UNL     1      24.100  31.405  61.883  0.00  0.00    +0.000 A 
ATOM     25  C21 UNL     1      25.369  30.938  62.227  0.00  0.00    +0.007 A 
ENDBRANCH  19  20
ENDBRANCH  18  19
ENDBRANCH  15  18
ENDBRANCH   8  12
BRANCH   1  27
ATOM     26  C1  UNL     1      36.301  35.775  63.322  0.00  0.00    +0.277 C 
ATOM     27  O1  UNL     1      35.110  36.497  63.617  0.00  0.00    -0.495 OA
ENDBRANCH   1  27
BRANCH  10  28
ATOM     28  O5  UNL     1      33.708  36.448  68.174  0.00  0.00    -0.494 OA
ATOM     29  C24 UNL     1      34.814  37.275  68.511  0.00  0.00    +0.277 C 
ENDBRANCH  10  28
TORSDOF 6
ENDMDL
MODEL 2
REMARK VINA RESULT:    -8.874      3.688      6.685
REMARK INTER + INTRA:         -12.872
REMARK INTER:                 -11.710
REMARK INTRA:                  -1.162
REMARK UNBOUND:                -0.886
REMARK  Name = data/mahkota_dewa_dn/results/docking/ligands/pdb/264-trihydroxy-4-methoxybenzophenone.pdb
REMARK  8 active torsions:
REMARK  status: ('A' for Active; 'I' for Inactive)
REMARK    1  A    between atoms: C1_1  and  O1_2
REMARK    2  A    between atoms: O1_2  and  C2_3
REMARK    3  A    between atoms: C8_10  and  C9_12
REMARK    4  A    between atoms: C12_15  and  O4_18
REMARK    5  A    between atoms: O4_18  and  C15_19
REMARK    6  A    between atoms: C15_19  and  C16_20
REMARK    7  A    between atoms: C22_26  and  O5_28
REMARK    8  A    between atoms: O5_28  and  C24_29
REMARK                            x       y       z     vdW  Elec       q    Type
REMARK                         _______ _______ _______ _____ _____    ______ ____
ROOT
ATOM      1  C2  UNL     1      29.954  33.491  67.449  0.00  0.00    +0.127 A 
ATOM      2  C3  UNL     1      30.081  32.518  66.463  0.00  0.00    +0.092 A 
ATOM      3  C4  UNL     1      28.949  31.848  65.997  0.00  0.00    +0.139 A 
ATOM      4  C5  UNL     1      27.681  32.118  66.532  0.00  0.00    +0.101 A 
ATOM      5  C6  UNL     1      26.538  31.305  66.026  0.00  0.00    +0.174 C 
ATOM      6  O2  UNL     1      25.371  31.510  66.339  0.00  0.00    -0.292 OA
ATOM      7  C7  UNL     1      26.891  30.159  65.120  0.00  0.00    +0.129 C 
ATOM      8  C8  UNL     1      28.032  30.611  64.229  0.00  0.00    +0.211 C 
ATOM      9  O3  UNL     1      29.190  30.916  65.018  0.00  0.00    -0.483 OA
ATOM     10  C22 UNL     1      27.543  33.101  67.528  0.00  0.00    +0.138 A 
ATOM     11  C23 UNL     1      28.688  33.779  67.970  0.00  0.00    +0.092 A 
ENDROOT
BRANCH   8  12
ATOM     12  C9  UNL     1      28.396  29.529  63.229  0.00  0.00    -0.007 A 
ATOM     13  C10 UNL     1      29.695  29.420  62.709  0.00  0.00    +0.011 A 
ATOM     14  C11 UNL     1      30.026  28.402  61.807  0.00  0.00    +0.046 A 
ATOM     15  C12 UNL     1      29.064  27.476  61.411  0.00  0.00    +0.121 A 
ATOM     16  C13 UNL     1      27.774  27.567  61.939  0.00  0.00    +0.046 A 
ATOM     17  C14 UNL     1      27.439  28.583  62.838  0.00  0.00    +0.011 A 
BRANCH  15  18
ATOM     18  O4  UNL     1      29.255  26.429  60.551  0.00  0.00    -0.487 OA
BRANCH  18  19
ATOM     19  C15 UNL     1      29.332  25.111  61.100  0.00  0.00    +0.264 C 
BRANCH  19  20
ATOM     20  C16 UNL     1      30.501  24.912  62.040  0.00  0.00    -0.010 A 
ATOM     21  C17 UNL     1      31.825  24.952  61.579  0.00  0.00    +0.007 A 
ATOM     22  C18 UNL     1      32.892  24.794  62.466  0.00  0.00    +0.000 A 
ATOM     23  C19 UNL     1      32.647  24.604  63.825  0.00  0.00    +0.000 A 
ATOM     24  C20 UNL     1      31.337  24.577  64.299  0.00  0.00    +0.000 A 
ATOM     25  C21 UNL     1      30.270  24.735  63.412  0.00  0.00    +0.007 A 
ENDBRANCH  19  20
ENDBRANCH  18  19
ENDBRANCH  15  18
ENDBRANCH   8  12
BRANCH   1  27
ATOM     26  C1  UNL     1      30.607  35.335  68.804  0.00  0.00    +0.277 C 
ATOM     27  O1  UNL     1      30.973  34.228  67.987  0.00  0.00    -0.495 OA
ENDBRANCH   1  27
BRANCH  10  28
ATOM     28  O5  UNL     1      26.290  33.334  68.022  0.00  0.00    -0.494 OA
ATOM     29  C24 UNL     1      26.019  32.994  69.375  0.00  0.00    +0.277 C 
ENDBRANCH  10  28
TORSDOF 6
ENDMDL
MODEL 3
REMARK VINA RESULT:    -8.803      2.035      3.150
REMARK INTER + INTRA:         -12.777
REMARK INTER:                 -11.953
REMARK INTRA:                  -0.824
REMARK UNBOUND:                -0.886
REMARK  Name = data/mahkota_dewa_dn/results/docking/ligands/pdb/264-trihydroxy-4-methoxybenzophenone.pdb
REMARK  8 active torsions:
REMARK  status: ('A' for Active; 'I' for Inactive)
REMARK    1  A    between atoms: C1_1  and  O1_2
REMARK    2  A    between atoms: O1_2  and  C2_3
REMARK    3  A    between atoms: C8_10  and  C9_12
REMARK    4  A    between atoms: C12_15  and  O4_18
REMARK    5  A    between atoms: O4_18  and  C15_19
REMARK    6  A    between atoms: C15_19  and  C16_20
REMARK    7  A    between atoms: C22_26  and  O5_28
REMARK    8  A    between atoms: O5_28  and  C24_29
REMARK                            x       y       z     vdW  Elec       q    Type
REMARK                         _______ _______ _______ _____ _____    ______ ____
ROOT
ATOM      1  C2  UNL     1      35.366  35.741  65.386  0.00  0.00    +0.127 A 
ATOM      2  C3  UNL     1      34.460  34.749  65.028  0.00  0.00    +0.092 A 
ATOM      3  C4  UNL     1      33.298  34.563  65.780  0.00  0.00    +0.139 A 
ATOM      4  C5  UNL     1      33.043  35.344  66.916  0.00  0.00    +0.101 A 
ATOM      5  C6  UNL     1      31.815  35.029  67.701  0.00  0.00    +0.174 C 
ATOM      6  O2  UNL     1      31.430  35.699  68.653  0.00  0.00    -0.292 OA
ATOM      7  C7  UNL     1      31.067  33.792  67.291  0.00  0.00    +0.129 C 
ATOM      8  C8  UNL     1      31.116  33.704  65.778  0.00  0.00    +0.211 C 
ATOM      9  O3  UNL     1      32.472  33.562  65.331  0.00  0.00    -0.483 OA
ATOM     10  C22 UNL     1      33.953  36.351  67.286  0.00  0.00    +0.138 A 
ATOM     11  C23 UNL     1      35.105  36.538  66.507  0.00  0.00    +0.092 A 
ENDROOT
BRANCH   8  12
ATOM     12  C9  UNL     1      30.314  32.516  65.280  0.00  0.00    -0.007 A 
ATOM     13  C10 UNL     1      30.908  31.500  64.517  0.00  0.00    +0.011 A 
ATOM     14  C11 UNL     1      30.164  30.396  64.085  0.00  0.00    +0.046 A 
ATOM     15  C12 UNL     1      28.813  30.290  64.410  0.00  0.00    +0.121 A 
ATOM     16  C13 UNL     1      28.220  31.288  65.185  0.00  0.00    +0.046 A 
ATOM     17  C14 UNL     1      28.959  32.393  65.617  0.00  0.00    +0.011 A 
BRANCH  15  18
ATOM     18  O4  UNL     1      27.978  29.263  64.066  0.00  0.00    -0.487 OA
BRANCH  18  19
ATOM     19  C15 UNL     1      27.953  28.842  62.699  0.00  0.00    +0.264 C 
BRANCH  19  20
ATOM     20  C16 UNL     1      28.470  27.436  62.488  0.00  0.00    -0.010 A 
ATOM     21  C17 UNL     1      27.960  26.614  61.471  0.00  0.00    +0.007 A 
ATOM     22  C18 UNL     1      28.469  25.329  61.275  0.00  0.00    +0.000 A 
ATOM     23  C19 UNL     1      29.500  24.855  62.084  0.00  0.00    +0.000 A 
ATOM     24  C20 UNL     1      30.026  25.666  63.087  0.00  0.00    +0.000 A 
ATOM     25  C21 UNL     1      29.518  26.951  63.285  0.00  0.00    +0.007 A 
ENDBRANCH  19  20
ENDBRANCH  18  19
ENDBRANCH  15  18
ENDBRANCH   8  12
BRANCH   1  27
ATOM     26  C1  UNL     1      36.596  35.725  63.349  0.00  0.00    +0.277 C 
ATOM     27  O1  UNL     1      36.532  36.038  64.736  0.00  0.00    -0.495 OA
ENDBRANCH   1  27
BRANCH  10  28
ATOM     28  O5  UNL     1      33.667  37.090  68.400  0.00  0.00    -0.494 OA
ATOM     29  C24 UNL     1      34.745  37.566  69.194  0.00  0.00    +0.277 C 
ENDBRANCH  10  28
TORSDOF 6
ENDMDL
MODEL 4
REMARK VINA RESULT:    -8.583      4.109      6.600
REMARK INTER + INTRA:         -12.479
REMARK INTER:                 -11.635
REMARK INTRA:                  -0.845
REMARK UNBOUND:                -0.886
REMARK  Name = data/mahkota_dewa_dn/results/docking/ligands/pdb/264-trihydroxy-4-methoxybenzophenone.pdb
REMARK  8 active torsions:
REMARK  status: ('A' for Active; 'I' for Inactive)
REMARK    1  A    between atoms: C1_1  and  O1_2
REMARK    2  A    between atoms: O1_2  and  C2_3
REMARK    3  A    between atoms: C8_10  and  C9_12
REMARK    4  A    between atoms: C12_15  and  O4_18
REMARK    5  A    between atoms: O4_18  and  C15_19
REMARK    6  A    between atoms: C15_19  and  C16_20
REMARK    7  A    between atoms: C22_26  and  O5_28
REMARK    8  A    between atoms: O5_28  and  C24_29
REMARK                            x       y       z     vdW  Elec       q    Type
REMARK                         _______ _______ _______ _____ _____    ______ ____
ROOT
ATOM      1  C2  UNL     1      30.056  33.432  67.269  0.00  0.00    +0.127 A 
ATOM      2  C3  UNL     1      30.123  32.418  66.320  0.00  0.00    +0.092 A 
ATOM      3  C4  UNL     1      28.955  31.771  65.910  0.00  0.00    +0.139 A 
ATOM      4  C5  UNL     1      27.713  32.107  66.466  0.00  0.00    +0.101 A 
ATOM      5  C6  UNL     1      26.529  31.316  66.023  0.00  0.00    +0.174 C 
ATOM      6  O2  UNL     1      25.378  31.575  66.358  0.00  0.00    -0.292 OA
ATOM      7  C7  UNL     1      26.817  30.123  65.156  0.00  0.00    +0.129 C 
ATOM      8  C8  UNL     1      27.949  30.498  64.218  0.00  0.00    +0.211 C 
ATOM      9  O3  UNL     1      29.138  30.793  64.964  0.00  0.00    -0.483 OA
ATOM     10  C22 UNL     1      27.635  33.133  67.425  0.00  0.00    +0.138 A 
ATOM     11  C23 UNL     1      28.815  33.786  67.810  0.00  0.00    +0.092 A 
ENDROOT
BRANCH   8  12
ATOM     12  C9  UNL     1      28.248  29.365  63.254  0.00  0.00    -0.007 A 
ATOM     13  C10 UNL     1      27.236  28.508  62.796  0.00  0.00    +0.011 A 
ATOM     14  C11 UNL     1      27.520  27.482  61.887  0.00  0.00    +0.046 A 
ATOM     15  C12 UNL     1      28.820  27.296  61.421  0.00  0.00    +0.121 A 
ATOM     16  C13 UNL     1      29.828  28.158  61.859  0.00  0.00    +0.046 A 
ATOM     17  C14 UNL     1      29.549  29.183  62.768  0.00  0.00    +0.011 A 
BRANCH  15  18
ATOM     18  O4  UNL     1      29.230  26.347  60.526  0.00  0.00    -0.487 OA
BRANCH  18  19
ATOM     19  C15 UNL     1      30.625  26.265  60.222  0.00  0.00    +0.264 C 
BRANCH  19  20
ATOM     20  C16 UNL     1      30.930  26.354  58.743  0.00  0.00    -0.010 A 
ATOM     21  C17 UNL     1      32.158  26.845  58.278  0.00  0.00    +0.007 A 
ATOM     22  C18 UNL     1      32.432  26.894  56.909  0.00  0.00    +0.000 A 
ATOM     23  C19 UNL     1      31.485  26.442  55.992  0.00  0.00    +0.000 A 
ATOM     24  C20 UNL     1      30.267  25.937  56.441  0.00  0.00    +0.000 A 
ATOM     25  C21 UNL     1      29.993  25.888  57.808  0.00  0.00    +0.007 A 
ENDBRANCH  19  20
ENDBRANCH  18  19
ENDBRANCH  15  18
ENDBRANCH   8  12
BRANCH   1  27
ATOM     26  C1  UNL     1      30.810  35.302  68.535  0.00  0.00    +0.277 C 
ATOM     27  O1  UNL     1      31.114  34.153  67.751  0.00  0.00    -0.495 OA
ENDBRANCH   1  27
BRANCH  10  28
ATOM     28  O5  UNL     1      26.405  33.430  67.942  0.00  0.00    -0.494 OA
ATOM     29  C24 UNL     1      26.145  33.112  69.302  0.00  0.00    +0.277 C 
ENDBRANCH  10  28
TORSDOF 6
ENDMDL
MODEL 5
REMARK VINA RESULT:    -8.559      5.184     10.308
REMARK INTER + INTRA:         -12.447
REMARK INTER:                 -11.562
REMARK INTRA:                  -0.884
REMARK UNBOUND:                -0.886
REMARK  Name = data/mahkota_dewa_dn/results/docking/ligands/pdb/264-trihydroxy-4-methoxybenzophenone.pdb
REMARK  8 active torsions:
REMARK  status: ('A' for Active; 'I' for Inactive)
REMARK    1  A    between atoms: C1_1  and  O1_2
REMARK    2  A    between atoms: O1_2  and  C2_3
REMARK    3  A    between atoms: C8_10  and  C9_12
REMARK    4  A    between atoms: C12_15  and  O4_18
REMARK    5  A    between atoms: O4_18  and  C15_19
REMARK    6  A    between atoms: C15_19  and  C16_20
REMARK    7  A    between atoms: C22_26  and  O5_28
REMARK    8  A    between atoms: O5_28  and  C24_29
REMARK                            x       y       z     vdW  Elec       q    Type
REMARK                         _______ _______ _______ _____ _____    ______ ____
ROOT
ATOM      1  C2  UNL     1      28.349  22.581  60.892  0.00  0.00    +0.127 A 
ATOM      2  C3  UNL     1      28.156  23.874  61.366  0.00  0.00    +0.092 A 
ATOM      3  C4  UNL     1      29.136  24.479  62.155  0.00  0.00    +0.139 A 
ATOM      4  C5  UNL     1      30.306  23.789  62.506  0.00  0.00    +0.101 A 
ATOM      5  C6  UNL     1      31.265  24.485  63.411  0.00  0.00    +0.174 C 
ATOM      6  O2  UNL     1      32.364  24.031  63.710  0.00  0.00    -0.292 OA
ATOM      7  C7  UNL     1      30.797  25.788  63.995  0.00  0.00    +0.129 C 
ATOM      8  C8  UNL     1      30.007  26.516  62.923  0.00  0.00    +0.211 C 
ATOM      9  O3  UNL     1      28.845  25.758  62.560  0.00  0.00    -0.483 OA
ATOM     10  C22 UNL     1      30.510  22.481  62.029  0.00  0.00    +0.138 A 
ATOM     11  C23 UNL     1      29.525  21.896  61.221  0.00  0.00    +0.092 A 
ENDROOT
BRANCH   8  12
ATOM     12  C9  UNL     1      29.563  27.881  63.415  0.00  0.00    -0.007 A 
ATOM     13  C10 UNL     1      30.473  28.785  63.982  0.00  0.00    +0.011 A 
ATOM     14  C11 UNL     1      30.057  30.052  64.409  0.00  0.00    +0.046 A 
ATOM     15  C12 UNL     1      28.724  30.435  64.274  0.00  0.00    +0.121 A 
ATOM     16  C13 UNL     1      27.817  29.546  63.693  0.00  0.00    +0.046 A 
ATOM     17  C14 UNL     1      28.228  28.280  63.267  0.00  0.00    +0.011 A 
BRANCH  15  18
ATOM     18  O4  UNL     1      28.189  31.641  64.635  0.00  0.00    -0.487 OA
BRANCH  18  19
ATOM     19  C15 UNL     1      28.394  32.096  65.975  0.00  0.00    +0.264 C 
BRANCH  19  20
ATOM     20  C16 UNL     1      27.119  32.196  66.784  0.00  0.00    -0.010 A 
ATOM     21  C17 UNL     1      25.985  31.437  66.459  0.00  0.00    +0.007 A 
ATOM     22  C18 UNL     1      24.827  31.523  67.234  0.00  0.00    +0.000 A 
ATOM     23  C19 UNL     1      24.793  32.359  68.348  0.00  0.00    +0.000 A 
ATOM     24  C20 UNL     1      25.917  33.107  68.691  0.00  0.00    +0.000 A 
ATOM     25  C21 UNL     1      27.075  33.022  67.917  0.00  0.00    +0.007 A 
ENDBRANCH  19  20
ENDBRANCH  18  19
ENDBRANCH  15  18
ENDBRANCH   8  12
BRANCH   1  27
ATOM     26  C1  UNL     1      27.733  21.875  58.704  0.00  0.00    +0.277 C 
ATOM     27  O1  UNL     1      27.481  21.875  60.105  0.00  0.00    -0.495 OA
ENDBRANCH   1  27
BRANCH  10  28
ATOM     28  O5  UNL     1      31.663  21.844  62.394  0.00  0.00    -0.494 OA
ATOM     29  C24 UNL     1      31.619  20.445  62.636  0.00  0.00    +0.277 C 
ENDBRANCH  10  28
TORSDOF 6
ENDMDL
MODEL 6
REMARK VINA RESULT:    -8.472      1.929      9.498
REMARK INTER + INTRA:         -12.330
REMARK INTER:                 -11.399
REMARK INTRA:                  -0.931
REMARK UNBOUND:                -0.886
REMARK  Name = data/mahkota_dewa_dn/results/docking/ligands/pdb/264-trihydroxy-4-methoxybenzophenone.pdb
REMARK  8 active torsions:
REMARK  status: ('A' for Active; 'I' for Inactive)
REMARK    1  A    between atoms: C1_1  and  O1_2
REMARK    2  A    between atoms: O1_2  and  C2_3
REMARK    3  A    between atoms: C8_10  and  C9_12
REMARK    4  A    between atoms: C12_15  and  O4_18
REMARK    5  A    between atoms: O4_18  and  C15_19
REMARK    6  A    between atoms: C15_19  and  C16_20
REMARK    7  A    between atoms: C22_26  and  O5_28
REMARK    8  A    between atoms: O5_28  and  C24_29
REMARK                            x       y       z     vdW  Elec       q    Type
REMARK                         _______ _______ _______ _____ _____    ______ ____
ROOT
ATOM      1  C2  UNL     1      26.088  31.594  66.440  0.00  0.00    +0.127 A 
ATOM      2  C3  UNL     1      27.197  32.410  66.638  0.00  0.00    +0.092 A 
ATOM      3  C4  UNL     1      28.369  32.179  65.915  0.00  0.00    +0.139 A 
ATOM      4  C5  UNL     1      28.457  31.112  65.009  0.00  0.00    +0.101 A 
ATOM      5  C6  UNL     1      29.769  30.895  64.334  0.00  0.00    +0.174 C 
ATOM      6  O2  UNL     1      29.946  30.062  63.452  0.00  0.00    -0.292 OA
ATOM      7  C7  UNL     1      30.913  31.737  64.825  0.00  0.00    +0.129 C 
ATOM      8  C8  UNL     1      30.369  33.119  65.132  0.00  0.00    +0.211 C 
ATOM      9  O3  UNL     1      29.396  33.049  66.184  0.00  0.00    -0.483 OA
ATOM     10  C22 UNL     1      27.340  30.283  64.801  0.00  0.00    +0.138 A 
ATOM     11  C23 UNL     1      26.165  30.542  65.521  0.00  0.00    +0.092 A 
ENDROOT
BRANCH   8  12
ATOM     12  C9  UNL     1      31.484  34.053  65.563  0.00  0.00    -0.007 A 
ATOM     13  C10 UNL     1      31.949  34.076  66.887  0.00  0.00    +0.011 A 
ATOM     14  C11 UNL     1      32.996  34.924  67.267  0.00  0.00    +0.046 A 
ATOM     15  C12 UNL     1      33.595  35.763  66.330  0.00  0.00    +0.121 A 
ATOM     16  C13 UNL     1      33.149  35.732  65.007  0.00  0.00    +0.046 A 
ATOM     17  C14 UNL     1      32.103  34.888  64.623  0.00  0.00    +0.011 A 
BRANCH  15  18
ATOM     18  O4  UNL     1      34.629  36.626  66.563  0.00  0.00    -0.487 OA
BRANCH  18  19
ATOM     19  C15 UNL     1      35.954  36.090  66.628  0.00  0.00    +0.264 C 
BRANCH  19  20
ATOM     20  C16 UNL     1      36.322  35.235  65.436  0.00  0.00    -0.010 A 
ATOM     21  C17 UNL     1      36.635  35.807  64.194  0.00  0.00    +0.007 A 
ATOM     22  C18 UNL     1      36.999  35.003  63.113  0.00  0.00    +0.000 A 
ATOM     23  C19 UNL     1      37.065  33.619  63.263  0.00  0.00    +0.000 A 
ATOM     24  C20 UNL     1      36.772  33.038  64.495  0.00  0.00    +0.000 A 
ATOM     25  C21 UNL     1      36.408  33.842  65.577  0.00  0.00    +0.007 A 
ENDBRANCH  19  20
ENDBRANCH  18  19
ENDBRANCH  15  18
ENDBRANCH   8  12
BRANCH   1  27
ATOM     26  C1  UNL     1      24.895  32.189  68.411  0.00  0.00    +0.277 C 
ATOM     27  O1  UNL     1      24.880  31.713  67.069  0.00  0.00    -0.495 OA
ENDBRANCH   1  27
BRANCH  10  28
ATOM     28  O5  UNL     1      27.468  29.254  63.909  0.00  0.00    -0.494 OA
ATOM     29  C24 UNL     1      26.756  29.326  62.682  0.00  0.00    +0.277 C 
ENDBRANCH  10  28
TORSDOF 6
ENDMDL
MODEL 7
REMARK VINA RESULT:    -8.403      4.831      9.988
REMARK INTER + INTRA:         -12.236
REMARK INTER:                 -11.424
REMARK INTRA:                  -0.812
REMARK UNBOUND:                -0.886
REMARK  Name = data/mahkota_dewa_dn/results/docking/ligands/pdb/264-trihydroxy-4-methoxybenzophenone.pdb
REMARK  8 active torsions:
REMARK  status: ('A' for Active; 'I' for Inactive)
REMARK    1  A    between atoms: C1_1  and  O1_2
REMARK    2  A    between atoms: O1_2  and  C2_3
REMARK    3  A    between atoms: C8_10  and  C9_12
REMARK    4  A    between atoms: C12_15  and  O4_18
REMARK    5  A    between atoms: O4_18  and  C15_19
REMARK    6  A    between atoms: C15_19  and  C16_20
REMARK    7  A    between atoms: C22_26  and  O5_28
REMARK    8  A    between atoms: O5_28  and  C24_29
REMARK                            x       y       z     vdW  Elec       q    Type
REMARK                         _______ _______ _______ _____ _____    ______ ____
ROOT
ATOM      1  C2  UNL     1      28.426  23.511  60.947  0.00  0.00    +0.127 A 
ATOM      2  C3  UNL     1      28.345  24.598  61.810  0.00  0.00    +0.092 A 
ATOM      3  C4  UNL     1      29.199  25.689  61.637  0.00  0.00    +0.139 A 
ATOM      4  C5  UNL     1      30.165  25.693  60.621  0.00  0.00    +0.101 A 
ATOM      5  C6  UNL     1      31.083  26.867  60.555  0.00  0.00    +0.174 C 
ATOM      6  O2  UNL     1      31.902  27.036  59.658  0.00  0.00    -0.292 OA
ATOM      7  C7  UNL     1      30.990  27.844  61.693  0.00  0.00    +0.129 C 
ATOM      8  C8  UNL     1      29.527  27.969  62.075  0.00  0.00    +0.211 C 
ATOM      9  O3  UNL     1      29.025  26.709  62.540  0.00  0.00    -0.483 OA
ATOM     10  C22 UNL     1      30.254  24.599  59.743  0.00  0.00    +0.138 A 
ATOM     11  C23 UNL     1      29.375  23.521  59.918  0.00  0.00    +0.092 A 
ENDROOT
BRANCH   8  12
ATOM     12  C9  UNL     1      29.343  29.001  63.172  0.00  0.00    -0.007 A 
ATOM     13  C10 UNL     1      28.072  29.314  63.676  0.00  0.00    +0.011 A 
ATOM     14  C11 UNL     1      27.916  30.249  64.706  0.00  0.00    +0.046 A 
ATOM     15  C12 UNL     1      29.030  30.886  65.249  0.00  0.00    +0.121 A 
ATOM     16  C13 UNL     1      30.300  30.566  64.765  0.00  0.00    +0.046 A 
ATOM     17  C14 UNL     1      30.459  29.634  63.736  0.00  0.00    +0.011 A 
BRANCH  15  18
ATOM     18  O4  UNL     1      29.021  31.805  66.262  0.00  0.00    -0.487 OA
BRANCH  18  19
ATOM     19  C15 UNL     1      27.930  32.728  66.328  0.00  0.00    +0.264 C 
BRANCH  19  20
ATOM     20  C16 UNL     1      26.904  32.381  67.384  0.00  0.00    -0.010 A 
ATOM     21  C17 UNL     1      25.683  31.779  67.047  0.00  0.00    +0.007 A 
ATOM     22  C18 UNL     1      24.760  31.442  68.039  0.00  0.00    +0.000 A 
ATOM     23  C19 UNL     1      25.052  31.693  69.379  0.00  0.00    +0.000 A 
ATOM     24  C20 UNL     1      26.268  32.276  69.728  0.00  0.00    +0.000 A 
ATOM     25  C21 UNL     1      27.191  32.614  68.737  0.00  0.00    +0.007 A 
ENDBRANCH  19  20
ENDBRANCH  18  19
ENDBRANCH  15  18
ENDBRANCH   8  12
BRANCH   1  27
ATOM     26  C1  UNL     1      27.037  21.974  59.777  0.00  0.00    +0.277 C 
ATOM     27  O1  UNL     1      27.648  22.387  60.994  0.00  0.00    -0.495 OA
ENDBRANCH   1  27
BRANCH  10  28
ATOM     28  O5  UNL     1      31.210  24.643  58.766  0.00  0.00    -0.494 OA
ATOM     29  C24 UNL     1      30.972  23.947  57.551  0.00  0.00    +0.277 C 
ENDBRANCH  10  28
TORSDOF 6
ENDMDL
MODEL 8
REMARK VINA RESULT:    -8.301      4.949      9.168
REMARK INTER + INTRA:         -12.098
REMARK INTER:                 -11.165
REMARK INTRA:                  -0.933
REMARK UNBOUND:                -0.886
REMARK  Name = data/mahkota_dewa_dn/results/docking/ligands/pdb/264-trihydroxy-4-methoxybenzophenone.pdb
REMARK  8 active torsions:
REMARK  status: ('A' for Active; 'I' for Inactive)
REMARK    1  A    between atoms: C1_1  and  O1_2
REMARK    2  A    between atoms: O1_2  and  C2_3
REMARK    3  A    between atoms: C8_10  and  C9_12
REMARK    4  A    between atoms: C12_15  and  O4_18
REMARK    5  A    between atoms: O4_18  and  C15_19
REMARK    6  A    between atoms: C15_19  and  C16_20
REMARK    7  A    between atoms: C22_26  and  O5_28
REMARK    8  A    between atoms: O5_28  and  C24_29
REMARK                            x       y       z     vdW  Elec       q    Type
REMARK                         _______ _______ _______ _____ _____    ______ ____
ROOT
ATOM      1  C2  UNL     1      30.231  23.574  62.366  0.00  0.00    +0.127 A 
ATOM      2  C3  UNL     1      29.758  24.784  62.864  0.00  0.00    +0.092 A 
ATOM      3  C4  UNL     1      30.648  25.830  63.112  0.00  0.00    +0.139 A 
ATOM      4  C5  UNL     1      32.024  25.671  62.896  0.00  0.00    +0.101 A 
ATOM      5  C6  UNL     1      32.909  26.816  63.256  0.00  0.00    +0.174 C 
ATOM      6  O2  UNL     1      34.114  26.839  63.024  0.00  0.00    -0.292 OA
ATOM      7  C7  UNL     1      32.253  27.960  63.977  0.00  0.00    +0.129 C 
ATOM      8  C8  UNL     1      30.872  28.149  63.377  0.00  0.00    +0.211 C 
ATOM      9  O3  UNL     1      30.071  26.979  63.593  0.00  0.00    -0.483 OA
ATOM     10  C22 UNL     1      32.512  24.452  62.391  0.00  0.00    +0.138 A 
ATOM     11  C23 UNL     1      31.602  23.419  62.129  0.00  0.00    +0.092 A 
ENDROOT
BRANCH   8  12
ATOM     12  C9  UNL     1      30.172  29.340  64.004  0.00  0.00    -0.007 A 
ATOM     13  C10 UNL     1      30.895  30.381  64.605  0.00  0.00    +0.011 A 
ATOM     14  C11 UNL     1      30.239  31.488  65.157  0.00  0.00    +0.046 A 
ATOM     15  C12 UNL     1      28.849  31.571  65.117  0.00  0.00    +0.121 A 
ATOM     16  C13 UNL     1      28.123  30.548  64.503  0.00  0.00    +0.046 A 
ATOM     17  C14 UNL     1      28.775  29.440  63.952  0.00  0.00    +0.011 A 
BRANCH  15  18
ATOM     18  O4  UNL     1      28.086  32.597  65.604  0.00  0.00    -0.487 OA
BRANCH  18  19
ATOM     19  C15 UNL     1      28.164  32.891  67.001  0.00  0.00    +0.264 C 
BRANCH  19  20
ATOM     20  C16 UNL     1      26.955  32.433  67.787  0.00  0.00    -0.010 A 
ATOM     21  C17 UNL     1      26.939  32.463  69.189  0.00  0.00    +0.007 A 
ATOM     22  C18 UNL     1      25.804  32.061  69.895  0.00  0.00    +0.000 A 
ATOM     23  C19 UNL     1      24.668  31.635  69.208  0.00  0.00    +0.000 A 
ATOM     24  C20 UNL     1      24.665  31.615  67.815  0.00  0.00    +0.000 A 
ATOM     25  C21 UNL     1      25.800  32.017  67.108  0.00  0.00    +0.007 A 
ENDBRANCH  19  20
ENDBRANCH  18  19
ENDBRANCH  15  18
ENDBRANCH   8  12
BRANCH   1  27
ATOM     26  C1  UNL     1      30.110  21.206  62.171  0.00  0.00    +0.277 C 
ATOM     27  O1  UNL     1      29.474  22.475  62.070  0.00  0.00    -0.495 OA
ENDBRANCH   1  27
BRANCH  10  28
ATOM     28  O5  UNL     1      33.860  24.339  62.196  0.00  0.00    -0.494 OA
ATOM     29  C24 UNL     1      34.538  23.228  62.765  0.00  0.00    +0.277 C 
ENDBRANCH  10  28
TORSDOF 6
ENDMDL
MODEL 9
REMARK VINA RESULT:    -8.286      5.294      9.915
REMARK INTER + INTRA:         -12.079
REMARK INTER:                 -11.283
REMARK INTRA:                  -0.796
REMARK UNBOUND:                -0.886
REMARK  Name = data/mahkota_dewa_dn/results/docking/ligands/pdb/264-trihydroxy-4-methoxybenzophenone.pdb
REMARK  8 active torsions:
REMARK  status: ('A' for Active; 'I' for Inactive)
REMARK    1  A    between atoms: C1_1  and  O1_2
REMARK    2  A    between atoms: O1_2  and  C2_3
REMARK    3  A    between atoms: C8_10  and  C9_12
REMARK    4  A    between atoms: C12_15  and  O4_18
REMARK    5  A    between atoms: O4_18  and  C15_19
REMARK    6  A    between atoms: C15_19  and  C16_20
REMARK    7  A    between atoms: C22_26  and  O5_28
REMARK    8  A    between atoms: O5_28  and  C24_29
REMARK                            x       y       z     vdW  Elec       q    Type
REMARK                         _______ _______ _______ _____ _____    ______ ____
ROOT
ATOM      1  C2  UNL     1      30.244  25.416  57.888  0.00  0.00    +0.127 A 
ATOM      2  C3  UNL     1      29.867  26.410  58.784  0.00  0.00    +0.092 A 
ATOM      3  C4  UNL     1      29.785  26.124  60.148  0.00  0.00    +0.139 A 
ATOM      4  C5  UNL     1      30.047  24.833  60.629  0.00  0.00    +0.101 A 
ATOM      5  C6  UNL     1      29.865  24.598  62.090  0.00  0.00    +0.174 C 
ATOM      6  O2  UNL     1      30.156  23.545  62.648  0.00  0.00    -0.292 OA
ATOM      7  C7  UNL     1      29.250  25.726  62.870  0.00  0.00    +0.129 C 
ATOM      8  C8  UNL     1      29.800  27.025  62.312  0.00  0.00    +0.211 C 
ATOM      9  O3  UNL     1      29.412  27.181  60.940  0.00  0.00    -0.483 OA
ATOM     10  C22 UNL     1      30.431  23.821  59.731  0.00  0.00    +0.138 A 
ATOM     11  C23 UNL     1      30.528  24.132  58.367  0.00  0.00    +0.092 A 
ENDROOT
BRANCH   8  12
ATOM     12  C9  UNL     1      29.282  28.213  63.102  0.00  0.00    -0.007 A 
ATOM     13  C10 UNL     1      30.156  29.152  63.669  0.00  0.00    +0.011 A 
ATOM     14  C11 UNL     1      29.666  30.258  64.373  0.00  0.00    +0.046 A 
ATOM     15  C12 UNL     1      28.293  30.442  64.522  0.00  0.00    +0.121 A 
ATOM     16  C13 UNL     1      27.416  29.521  63.944  0.00  0.00    +0.046 A 
ATOM     17  C14 UNL     1      27.902  28.415  63.241  0.00  0.00    +0.011 A 
BRANCH  15  18
ATOM     18  O4  UNL     1      27.683  31.480  65.171  0.00  0.00    -0.487 OA
BRANCH  18  19
ATOM     19  C15 UNL     1      26.347  31.288  65.644  0.00  0.00    +0.264 C 
BRANCH  19  20
ATOM     20  C16 UNL     1      26.157  31.665  67.097  0.00  0.00    -0.010 A 
ATOM     21  C17 UNL     1      27.116  32.421  67.788  0.00  0.00    +0.007 A 
ATOM     22  C18 UNL     1      26.910  32.782  69.121  0.00  0.00    +0.000 A 
ATOM     23  C19 UNL     1      25.739  32.402  69.774  0.00  0.00    +0.000 A 
ATOM     24  C20 UNL     1      24.772  31.665  69.096  0.00  0.00    +0.000 A 
ATOM     25  C21 UNL     1      24.976  31.303  67.763  0.00  0.00    +0.007 A 
ENDBRANCH  19  20
ENDBRANCH  18  19
ENDBRANCH  15  18
ENDBRANCH   8  12
BRANCH   1  27
ATOM     26  C1  UNL     1      31.205  26.622  56.075  0.00  0.00    +0.277 C 
ATOM     27  O1  UNL     1      30.375  25.561  56.534  0.00  0.00    -0.495 OA
ENDBRANCH   1  27
BRANCH  10  28
ATOM     28  O5  UNL     1      30.677  22.577  60.241  0.00  0.00    -0.494 OA
ATOM     29  C24 UNL     1      30.458  21.446  59.409  0.00  0.00    +0.277 C 
ENDBRANCH  10  28
TORSDOF 6
ENDMDL
