MODEL 1
REMARK VINA RESULT:    -8.985      0.000      0.000
REMARK INTER + INTRA:         -12.261
REMARK INTER:                 -11.611
REMARK INTRA:                  -0.650
REMARK UNBOUND:                -0.650
REMARK  Name = data/mahkota_dewa_dn/results/docking/ligands/pdb/Pinoresinol.pdb
REMARK  8 active torsions:
REMARK  status: ('A' for Active; 'I' for Inactive)
REMARK    1  A    between atoms: C1_1  and  O1_2
REMARK    2  A    between atoms: O1_2  and  C2_3
REMARK    3  A    between atoms: C4_5  and  C8_10
REMARK    4  A    between atoms: C7_8  and  O2_9
REMARK    5  A    between atoms: C13_17  and  C14_18
REMARK    6  A    between atoms: C16_20  and  O6_25
REMARK    7  A    between atoms: C17_21  and  O5_24
REMARK    8  A    between atoms: O6_25  and  C20_26
REMARK                            x       y       z     vdW  Elec       q    Type
REMARK                         _______ _______ _______ _____ _____    ______ ____
ROOT
ATOM      1  C8  UNL     1      30.206  31.946  65.893  0.00  0.00    +0.154 C 
ATOM      2  O3  UNL     1      30.684  31.583  64.555  0.00  0.00    -0.371 OA
ATOM      3  C9  UNL     1      31.659  32.581  64.123  0.00  0.00    +0.167 C 
ATOM      4  C10 UNL     1      32.015  33.287  65.393  0.00  0.00    +0.056 C 
ATOM      5  C11 UNL     1      30.663  33.374  66.032  0.00  0.00    +0.056 C 
ATOM      6  C12 UNL     1      31.019  34.079  67.302  0.00  0.00    +0.167 C 
ATOM      7  O4  UNL     1      31.993  35.078  66.870  0.00  0.00    -0.371 OA
ATOM      8  C13 UNL     1      32.472  34.715  65.532  0.00  0.00    +0.154 C 
ENDROOT
BRANCH   1  11
ATOM      9  C2  UNL     1      26.607  32.241  67.190  0.00  0.00    +0.162 A 
ATOM     10  C3  UNL     1      27.991  32.412  67.065  0.00  0.00    +0.055 A 
ATOM     11  C4  UNL     1      28.710  31.793  66.027  0.00  0.00    -0.015 A 
ATOM     12  C5  UNL     1      28.016  30.988  65.110  0.00  0.00    +0.010 A 
ATOM     13  C6  UNL     1      26.637  30.806  65.225  0.00  0.00    +0.049 A 
ATOM     14  C7  UNL     1      25.943  31.429  66.261  0.00  0.00    +0.158 A 
BRANCH   9  16
ATOM     15  C1  UNL     1      26.281  32.680  69.509  0.00  0.00    +0.277 C 
ATOM     16  O1  UNL     1      25.830  32.803  68.168  0.00  0.00    -0.491 OA
ENDBRANCH   9  16
BRANCH  14  17
ATOM     17  O2  UNL     1      24.590  31.249  66.376  0.00  0.00    -0.503 OA
ATOM     18  H7  UNL     1      24.138  31.844  65.759  0.00  0.00    +0.292 HD
ENDBRANCH  14  17
ENDBRANCH   1  11
BRANCH   8  19
ATOM     19  C14 UNL     1      33.968  34.868  65.397  0.00  0.00    -0.015 A 
ATOM     20  C15 UNL     1      34.812  33.762  65.194  0.00  0.00    +0.055 A 
ATOM     21  C16 UNL     1      36.194  33.923  65.049  0.00  0.00    +0.162 A 
ATOM     22  C17 UNL     1      36.730  35.217  65.099  0.00  0.00    +0.158 A 
ATOM     23  C18 UNL     1      35.911  36.326  65.299  0.00  0.00    +0.049 A 
ATOM     24  C19 UNL     1      34.534  36.151  65.447  0.00  0.00    +0.010 A 
BRANCH  22  25
ATOM     25  O5  UNL     1      38.081  35.387  64.952  0.00  0.00    -0.503 OA
ATOM     26  H19 UNL     1      38.533  34.568  65.202  0.00  0.00    +0.292 HD
ENDBRANCH  22  25
BRANCH  21  27
ATOM     27  O6  UNL     1      37.088  32.905  64.848  0.00  0.00    -0.491 OA
ATOM     28  C20 UNL     1      37.092  32.283  63.571  0.00  0.00    +0.277 C 
ENDBRANCH  21  27
ENDBRANCH   8  19
TORSDOF 6
ENDMDL
MODEL 2
REMARK VINA RESULT:    -8.973      0.871      8.909
REMARK INTER + INTRA:         -12.246
REMARK INTER:                 -11.545
REMARK INTRA:                  -0.701
REMARK UNBOUND:                -0.650
REMARK  Name = data/mahkota_dewa_dn/results/docking/ligands/pdb/Pinoresinol.pdb
REMARK  8 active torsions:
REMARK  status: ('A' for Active; 'I' for Inactive)
REMARK    1  A    between atoms: C1_1  and  O1_2
REMARK    2  A    between atoms: O1_2  and  C2_3
REMARK    3  A    between atoms: C4_5  and  C8_10
REMARK    4  A    between atoms: C7_8  and  O2_9
REMARK    5  A    between atoms: C13_17  and  C14_18
REMARK    6  A    between atoms: C16_20  and  O6_25
REMARK    7  A    between atoms: C17_21  and  O5_24
REMARK    8  A    between atoms: O6_25  and  C20_26
REMARK                            x       y       z     vdW  Elec       q    Type
REMARK                         _______ _______ _______ _____ _____    ______ ____
ROOT
ATOM      1  C8  UNL     1      32.589  34.117  64.635  0.00  0.00    +0.154 C 
ATOM      2  O3  UNL     1      32.336  33.015  63.700  0.00  0.00    -0.371 OA
ATOM      3  C9  UNL     1      31.355  32.115  64.297  0.00  0.00    +0.167 C 
ATOM      4  C10 UNL     1      30.766  32.931  65.404  0.00  0.00    +0.056 C 
ATOM      5  C11 UNL     1      32.002  33.601  65.921  0.00  0.00    +0.056 C 
ATOM      6  C12 UNL     1      31.412  34.418  67.027  0.00  0.00    +0.167 C 
ATOM      7  O4  UNL     1      30.431  33.517  67.625  0.00  0.00    -0.371 OA
ATOM      8  C13 UNL     1      30.179  32.415  66.689  0.00  0.00    +0.154 C 
ENDROOT
BRANCH   1  11
ATOM      9  C2  UNL     1      36.404  33.764  64.830  0.00  0.00    +0.162 A 
ATOM     10  C3  UNL     1      35.047  33.447  64.699  0.00  0.00    +0.055 A 
ATOM     11  C4  UNL     1      34.058  34.445  64.750  0.00  0.00    -0.015 A 
ATOM     12  C5  UNL     1      34.452  35.779  64.942  0.00  0.00    +0.010 A 
ATOM     13  C6  UNL     1      35.801  36.108  65.079  0.00  0.00    +0.049 A 
ATOM     14  C7  UNL     1      36.766  35.103  65.025  0.00  0.00    +0.158 A 
BRANCH   9  16
ATOM     15  C1  UNL     1      37.243  31.691  64.007  0.00  0.00    +0.277 C 
ATOM     16  O1  UNL     1      37.430  32.857  64.794  0.00  0.00    -0.491 OA
ENDBRANCH   9  16
BRANCH  14  17
ATOM     17  O2  UNL     1      38.090  35.426  65.160  0.00  0.00    -0.503 OA
ATOM     18  H7  UNL     1      38.622  34.618  65.095  0.00  0.00    +0.292 HD
ENDBRANCH  14  17
ENDBRANCH   1  11
BRANCH   8  19
ATOM     19  C14 UNL     1      28.709  32.087  66.575  0.00  0.00    -0.015 A 
ATOM     20  C15 UNL     1      27.767  32.568  67.502  0.00  0.00    +0.055 A 
ATOM     21  C16 UNL     1      26.405  32.274  67.368  0.00  0.00    +0.162 A 
ATOM     22  C17 UNL     1      25.988  31.494  66.282  0.00  0.00    +0.158 A 
ATOM     23  C18 UNL     1      26.906  31.009  65.351  0.00  0.00    +0.049 A 
ATOM     24  C19 UNL     1      28.261  31.305  65.498  0.00  0.00    +0.010 A 
BRANCH  22  25
ATOM     25  O5  UNL     1      24.657  31.206  66.137  0.00  0.00    -0.503 OA
ATOM     26  H19 UNL     1      24.327  30.810  66.958  0.00  0.00    +0.292 HD
ENDBRANCH  22  25
BRANCH  21  27
ATOM     27  O6  UNL     1      25.422  32.700  68.221  0.00  0.00    -0.491 OA
ATOM     28  C20 UNL     1      25.335  32.061  69.487  0.00  0.00    +0.277 C 
ENDBRANCH  21  27
ENDBRANCH   8  19
TORSDOF 6
ENDMDL
MODEL 3
REMARK VINA RESULT:    -8.884      1.380      8.915
REMARK INTER + INTRA:         -12.132
REMARK INTER:                 -11.432
REMARK INTRA:                  -0.699
REMARK UNBOUND:                -0.650
REMARK  Name = data/mahkota_dewa_dn/results/docking/ligands/pdb/Pinoresinol.pdb
REMARK  8 active torsions:
REMARK  status: ('A' for Active; 'I' for Inactive)
REMARK    1  A    between atoms: C1_1  and  O1_2
REMARK    2  A    between atoms: O1_2  and  C2_3
REMARK    3  A    between atoms: C4_5  and  C8_10
REMARK    4  A    between atoms: C7_8  and  O2_9
REMARK    5  A    between atoms: C13_17  and  C14_18
REMARK    6  A    between atoms: C16_20  and  O6_25
REMARK    7  A    between atoms: C17_21  and  O5_24
REMARK    8  A    between atoms: O6_25  and  C20_26
REMARK                            x       y       z     vdW  Elec       q    Type
REMARK                         _______ _______ _______ _____ _____    ______ ____
ROOT
ATOM      1  C8  UNL     1      32.478  34.139  66.750  0.00  0.00    +0.154 C 
ATOM      2  O3  UNL     1      31.678  35.174  67.415  0.00  0.00    -0.371 OA
ATOM      3  C9  UNL     1      30.279  34.991  67.041  0.00  0.00    +0.167 C 
ATOM      4  C10 UNL     1      30.251  33.605  66.477  0.00  0.00    +0.056 C 
ATOM      5  C11 UNL     1      31.533  33.611  65.704  0.00  0.00    +0.056 C 
ATOM      6  C12 UNL     1      31.506  32.225  65.141  0.00  0.00    +0.167 C 
ATOM      7  O4  UNL     1      30.106  32.043  64.767  0.00  0.00    -0.371 OA
ATOM      8  C13 UNL     1      29.306  33.078  65.431  0.00  0.00    +0.154 C 
ENDROOT
BRANCH   1  11
ATOM      9  C2  UNL     1      34.962  35.890  64.409  0.00  0.00    +0.162 A 
ATOM     10  C3  UNL     1      33.767  35.404  64.951  0.00  0.00    +0.055 A 
ATOM     11  C4  UNL     1      33.756  34.691  66.163  0.00  0.00    -0.015 A 
ATOM     12  C5  UNL     1      34.971  34.466  66.827  0.00  0.00    +0.010 A 
ATOM     13  C6  UNL     1      36.170  34.940  66.295  0.00  0.00    +0.049 A 
ATOM     14  C7  UNL     1      36.160  35.645  65.093  0.00  0.00    +0.158 A 
BRANCH   9  16
ATOM     15  C1  UNL     1      33.898  37.244  62.762  0.00  0.00    +0.277 C 
ATOM     16  O1  UNL     1      35.066  36.590  63.236  0.00  0.00    -0.491 OA
ENDBRANCH   9  16
BRANCH  14  17
ATOM     17  O2  UNL     1      37.337  36.111  64.569  0.00  0.00    -0.503 OA
ATOM     18  H7  UNL     1      37.865  35.360  64.258  0.00  0.00    +0.292 HD
ENDBRANCH  14  17
ENDBRANCH   1  11
BRANCH   8  19
ATOM     19  C14 UNL     1      28.029  32.525  66.018  0.00  0.00    -0.015 A 
ATOM     20  C15 UNL     1      27.409  33.116  67.134  0.00  0.00    +0.055 A 
ATOM     21  C16 UNL     1      26.213  32.606  67.652  0.00  0.00    +0.162 A 
ATOM     22  C17 UNL     1      25.632  31.493  67.031  0.00  0.00    +0.158 A 
ATOM     23  C18 UNL     1      26.229  30.893  65.923  0.00  0.00    +0.049 A 
ATOM     24  C19 UNL     1      27.424  31.409  65.420  0.00  0.00    +0.010 A 
BRANCH  22  25
ATOM     25  O5  UNL     1      24.458  30.989  67.525  0.00  0.00    -0.503 OA
ATOM     26  H19 UNL     1      24.575  30.772  68.462  0.00  0.00    +0.292 HD
ENDBRANCH  22  25
BRANCH  21  27
ATOM     27  O6  UNL     1      25.543  33.116  68.731  0.00  0.00    -0.491 OA
ATOM     28  C20 UNL     1      26.102  32.885  70.016  0.00  0.00    +0.277 C 
ENDBRANCH  21  27
ENDBRANCH   8  19
TORSDOF 6
ENDMDL
MODEL 4
REMARK VINA RESULT:    -8.471      1.255      8.772
REMARK INTER + INTRA:         -11.597
REMARK INTER:                 -10.982
REMARK INTRA:                  -0.615
REMARK UNBOUND:                -0.650
REMARK  Name = data/mahkota_dewa_dn/results/docking/ligands/pdb/Pinoresinol.pdb
REMARK  8 active torsions:
REMARK  status: ('A' for Active; 'I' for Inactive)
REMARK    1  A    between atoms: C1_1  and  O1_2
REMARK    2  A    between atoms: O1_2  and  C2_3
REMARK    3  A    between atoms: C4_5  and  C8_10
REMARK    4  A    between atoms: C7_8  and  O2_9
REMARK    5  A    between atoms: C13_17  and  C14_18
REMARK    6  A    between atoms: C16_20  and  O6_25
REMARK    7  A    between atoms: C17_21  and  O5_24
REMARK    8  A    between atoms: O6_25  and  C20_26
REMARK                            x       y       z     vdW  Elec       q    Type
REMARK                         _______ _______ _______ _____ _____    ______ ____
ROOT
ATOM      1  C8  UNL     1      32.279  34.245  64.381  0.00  0.00    +0.154 C 
ATOM      2  O3  UNL     1      32.130  32.989  63.637  0.00  0.00    -0.371 OA
ATOM      3  C9  UNL     1      31.209  32.123  64.367  0.00  0.00    +0.167 C 
ATOM      4  C10 UNL     1      30.538  33.060  65.321  0.00  0.00    +0.056 C 
ATOM      5  C11 UNL     1      31.708  33.900  65.731  0.00  0.00    +0.056 C 
ATOM      6  C12 UNL     1      31.037  34.837  66.684  0.00  0.00    +0.167 C 
ATOM      7  O4  UNL     1      30.116  33.971  67.415  0.00  0.00    -0.371 OA
ATOM      8  C13 UNL     1      29.967  32.715  66.671  0.00  0.00    +0.154 C 
ENDROOT
BRANCH   1  11
ATOM      9  C2  UNL     1      35.416  36.332  65.104  0.00  0.00    +0.162 A 
ATOM     10  C3  UNL     1      34.082  35.911  65.068  0.00  0.00    +0.055 A 
ATOM     11  C4  UNL     1      33.717  34.702  64.451  0.00  0.00    -0.015 A 
ATOM     12  C5  UNL     1      34.718  33.915  63.860  0.00  0.00    +0.010 A 
ATOM     13  C6  UNL     1      36.051  34.325  63.884  0.00  0.00    +0.049 A 
ATOM     14  C7  UNL     1      36.392  35.527  64.502  0.00  0.00    +0.158 A 
BRANCH   9  16
ATOM     15  C1  UNL     1      35.015  38.105  66.645  0.00  0.00    +0.277 C 
ATOM     16  O1  UNL     1      35.859  37.493  65.681  0.00  0.00    -0.491 OA
ENDBRANCH   9  16
BRANCH  14  17
ATOM     17  O2  UNL     1      37.700  35.931  64.526  0.00  0.00    -0.503 OA
ATOM     18  H7  UNL     1      38.214  35.380  63.917  0.00  0.00    +0.292 HD
ENDBRANCH  14  17
ENDBRANCH   1  11
BRANCH   8  19
ATOM     19  C14 UNL     1      28.529  32.258  66.601  0.00  0.00    -0.015 A 
ATOM     20  C15 UNL     1      27.575  32.667  67.550  0.00  0.00    +0.055 A 
ATOM     21  C16 UNL     1      26.241  32.253  67.459  0.00  0.00    +0.162 A 
ATOM     22  C17 UNL     1      25.864  31.426  66.392  0.00  0.00    +0.158 A 
ATOM     23  C18 UNL     1      26.794  31.011  65.441  0.00  0.00    +0.049 A 
ATOM     24  C19 UNL     1      28.122  31.427  65.546  0.00  0.00    +0.010 A 
BRANCH  22  25
ATOM     25  O5  UNL     1      24.560  31.020  66.289  0.00  0.00    -0.503 OA
ATOM     26  H19 UNL     1      24.011  31.778  66.037  0.00  0.00    +0.292 HD
ENDBRANCH  22  25
BRANCH  21  27
ATOM     27  O6  UNL     1      25.248  32.602  68.335  0.00  0.00    -0.491 OA
ATOM     28  C20 UNL     1      25.201  31.912  69.576  0.00  0.00    +0.277 C 
ENDBRANCH  21  27
ENDBRANCH   8  19
TORSDOF 6
ENDMDL
MODEL 5
REMARK VINA RESULT:    -8.435      2.687      4.025
REMARK INTER + INTRA:         -11.551
REMARK INTER:                 -10.849
REMARK INTRA:                  -0.702
REMARK UNBOUND:                -0.650
REMARK  Name = data/mahkota_dewa_dn/results/docking/ligands/pdb/Pinoresinol.pdb
REMARK  8 active torsions:
REMARK  status: ('A' for Active; 'I' for Inactive)
REMARK    1  A    between atoms: C1_1  and  O1_2
REMARK    2  A    between atoms: O1_2  and  C2_3
REMARK    3  A    between atoms: C4_5  and  C8_10
REMARK    4  A    between atoms: C7_8  and  O2_9
REMARK    5  A    between atoms: C13_17  and  C14_18
REMARK    6  A    between atoms: C16_20  and  O6_25
REMARK    7  A    between atoms: C17_21  and  O5_24
REMARK    8  A    between atoms: O6_25  and  C20_26
REMARK                            x       y       z     vdW  Elec       q    Type
REMARK                         _______ _______ _______ _____ _____    ______ ____
ROOT
ATOM      1  C8  UNL     1      30.740  30.760  64.607  0.00  0.00    +0.154 C 
ATOM      2  O3  UNL     1      31.535  31.249  63.474  0.00  0.00    -0.371 OA
ATOM      3  C9  UNL     1      31.918  32.632  63.738  0.00  0.00    +0.167 C 
ATOM      4  C10 UNL     1      31.665  32.786  65.205  0.00  0.00    +0.056 C 
ATOM      5  C11 UNL     1      30.379  32.030  65.329  0.00  0.00    +0.056 C 
ATOM      6  C12 UNL     1      30.126  32.183  66.796  0.00  0.00    +0.167 C 
ATOM      7  O4  UNL     1      30.509  33.567  67.060  0.00  0.00    -0.371 OA
ATOM      8  C13 UNL     1      31.304  34.056  65.928  0.00  0.00    +0.154 C 
ENDROOT
BRANCH   1  11
ATOM      9  C2  UNL     1      28.519  28.094  62.971  0.00  0.00    +0.162 A 
ATOM     10  C3  UNL     1      29.650  28.799  63.397  0.00  0.00    +0.055 A 
ATOM     11  C4  UNL     1      29.530  29.974  64.160  0.00  0.00    -0.015 A 
ATOM     12  C5  UNL     1      28.248  30.440  64.488  0.00  0.00    +0.010 A 
ATOM     13  C6  UNL     1      27.111  29.749  64.066  0.00  0.00    +0.049 A 
ATOM     14  C7  UNL     1      27.252  28.586  63.311  0.00  0.00    +0.158 A 
BRANCH   9  16
ATOM     15  C1  UNL     1      29.301  25.856  62.730  0.00  0.00    +0.277 C 
ATOM     16  O1  UNL     1      28.543  26.945  62.225  0.00  0.00    -0.491 OA
ENDBRANCH   9  16
BRANCH  14  17
ATOM     17  O2  UNL     1      26.137  27.908  62.895  0.00  0.00    -0.503 OA
ATOM     18  H7  UNL     1      26.263  26.961  63.055  0.00  0.00    +0.292 HD
ENDBRANCH  14  17
ENDBRANCH   1  11
BRANCH   8  19
ATOM     19  C14 UNL     1      32.513  34.842  66.375  0.00  0.00    -0.015 A 
ATOM     20  C15 UNL     1      33.365  35.480  65.455  0.00  0.00    +0.055 A 
ATOM     21  C16 UNL     1      34.469  36.224  65.886  0.00  0.00    +0.162 A 
ATOM     22  C17 UNL     1      34.711  36.334  67.262  0.00  0.00    +0.158 A 
ATOM     23  C18 UNL     1      33.878  35.710  68.190  0.00  0.00    +0.049 A 
ATOM     24  C19 UNL     1      32.784  34.967  67.746  0.00  0.00    +0.010 A 
BRANCH  22  25
ATOM     25  O5  UNL     1      35.784  37.065  67.696  0.00  0.00    -0.503 OA
ATOM     26  H19 UNL     1      36.262  37.414  66.928  0.00  0.00    +0.292 HD
ENDBRANCH  22  25
BRANCH  21  27
ATOM     27  O6  UNL     1      35.347  36.877  65.063  0.00  0.00    -0.491 OA
ATOM     28  C20 UNL     1      36.130  36.082  64.183  0.00  0.00    +0.277 C 
ENDBRANCH  21  27
ENDBRANCH   8  19
TORSDOF 6
ENDMDL
MODEL 6
REMARK VINA RESULT:    -8.353      1.512      8.694
REMARK INTER + INTRA:         -11.444
REMARK INTER:                 -10.816
REMARK INTRA:                  -0.628
REMARK UNBOUND:                -0.650
REMARK  Name = data/mahkota_dewa_dn/results/docking/ligands/pdb/Pinoresinol.pdb
REMARK  8 active torsions:
REMARK  status: ('A' for Active; 'I' for Inactive)
REMARK    1  A    between atoms: C1_1  and  O1_2
REMARK    2  A    between atoms: O1_2  and  C2_3
REMARK    3  A    between atoms: C4_5  and  C8_10
REMARK    4  A    between atoms: C7_8  and  O2_9
REMARK    5  A    between atoms: C13_17  and  C14_18
REMARK    6  A    between atoms: C16_20  and  O6_25
REMARK    7  A    between atoms: C17_21  and  O5_24
REMARK    8  A    between atoms: O6_25  and  C20_26
REMARK                            x       y       z     vdW  Elec       q    Type
REMARK                         _______ _______ _______ _____ _____    ______ ____
ROOT
ATOM      1  C8  UNL     1      31.625  33.826  65.683  0.00  0.00    +0.154 C 
ATOM      2  O3  UNL     1      31.442  32.434  65.257  0.00  0.00    -0.371 OA
ATOM      3  C9  UNL     1      30.448  31.810  66.125  0.00  0.00    +0.167 C 
ATOM      4  C10 UNL     1      29.787  32.978  66.788  0.00  0.00    +0.056 C 
ATOM      5  C11 UNL     1      30.982  33.844  67.044  0.00  0.00    +0.056 C 
ATOM      6  C12 UNL     1      30.322  35.012  67.706  0.00  0.00    +0.167 C 
ATOM      7  O4  UNL     1      29.328  34.388  68.574  0.00  0.00    -0.371 OA
ATOM      8  C13 UNL     1      29.144  32.995  68.149  0.00  0.00    +0.154 C 
ENDROOT
BRANCH   1  11
ATOM      9  C2  UNL     1      34.871  35.733  66.423  0.00  0.00    +0.162 A 
ATOM     10  C3  UNL     1      33.522  35.361  66.421  0.00  0.00    +0.055 A 
ATOM     11  C4  UNL     1      33.081  34.228  65.716  0.00  0.00    -0.015 A 
ATOM     12  C5  UNL     1      34.020  33.468  65.001  0.00  0.00    +0.010 A 
ATOM     13  C6  UNL     1      35.367  33.830  64.990  0.00  0.00    +0.049 A 
ATOM     14  C7  UNL     1      35.784  34.957  65.696  0.00  0.00    +0.158 A 
BRANCH   9  16
ATOM     15  C1  UNL     1      35.016  38.105  66.602  0.00  0.00    +0.277 C 
ATOM     16  O1  UNL     1      35.386  36.820  67.079  0.00  0.00    -0.491 OA
ENDBRANCH   9  16
BRANCH  14  17
ATOM     17  O2  UNL     1      37.106  35.314  65.686  0.00  0.00    -0.503 OA
ATOM     18  H7  UNL     1      37.572  34.789  65.019  0.00  0.00    +0.292 HD
ENDBRANCH  14  17
ENDBRANCH   1  11
BRANCH   8  19
ATOM     19  C14 UNL     1      27.689  32.594  68.116  0.00  0.00    -0.015 A 
ATOM     20  C15 UNL     1      27.054  32.202  66.924  0.00  0.00    +0.055 A 
ATOM     21  C16 UNL     1      25.711  31.811  66.914  0.00  0.00    +0.162 A 
ATOM     22  C17 UNL     1      25.002  31.806  68.123  0.00  0.00    +0.158 A 
ATOM     23  C18 UNL     1      25.613  32.190  69.315  0.00  0.00    +0.049 A 
ATOM     24  C19 UNL     1      26.952  32.582  69.311  0.00  0.00    +0.010 A 
BRANCH  22  25
ATOM     25  O5  UNL     1      23.688  31.419  68.127  0.00  0.00    -0.503 OA
ATOM     26  H19 UNL     1      23.616  30.545  68.538  0.00  0.00    +0.292 HD
ENDBRANCH  22  25
BRANCH  21  27
ATOM     27  O6  UNL     1      25.015  31.415  65.803  0.00  0.00    -0.491 OA
ATOM     28  C20 UNL     1      25.771  31.015  64.668  0.00  0.00    +0.277 C 
ENDBRANCH  21  27
ENDBRANCH   8  19
TORSDOF 6
ENDMDL
MODEL 7
REMARK VINA RESULT:    -8.196      2.271      3.800
REMARK INTER + INTRA:         -11.242
REMARK INTER:                 -10.467
REMARK INTRA:                  -0.776
REMARK UNBOUND:                -0.650
REMARK  Name = data/mahkota_dewa_dn/results/docking/ligands/pdb/Pinoresinol.pdb
REMARK  8 active torsions:
REMARK  status: ('A' for Active; 'I' for Inactive)
REMARK    1  A    between atoms: C1_1  and  O1_2
REMARK    2  A    between atoms: O1_2  and  C2_3
REMARK    3  A    between atoms: C4_5  and  C8_10
REMARK    4  A    between atoms: C7_8  and  O2_9
REMARK    5  A    between atoms: C13_17  and  C14_18
REMARK    6  A    between atoms: C16_20  and  O6_25
REMARK    7  A    between atoms: C17_21  and  O5_24
REMARK    8  A    between atoms: O6_25  and  C20_26
REMARK                            x       y       z     vdW  Elec       q    Type
REMARK                         _______ _______ _______ _____ _____    ______ ____
ROOT
ATOM      1  C8  UNL     1      28.852  33.092  65.966  0.00  0.00    +0.154 C 
ATOM      2  O3  UNL     1      29.830  34.139  66.284  0.00  0.00    -0.371 OA
ATOM      3  C9  UNL     1      31.132  33.733  65.764  0.00  0.00    +0.167 C 
ATOM      4  C10 UNL     1      30.793  32.634  64.807  0.00  0.00    +0.056 C 
ATOM      5  C11 UNL     1      29.727  31.927  65.586  0.00  0.00    +0.056 C 
ATOM      6  C12 UNL     1      29.388  30.829  64.628  0.00  0.00    +0.167 C 
ATOM      7  O4  UNL     1      30.690  30.422  64.108  0.00  0.00    -0.371 OA
ATOM      8  C13 UNL     1      31.668  31.469  64.427  0.00  0.00    +0.154 C 
ENDROOT
BRANCH   1  11
ATOM      9  C2  UNL     1      25.814  31.989  68.032  0.00  0.00    +0.162 A 
ATOM     10  C3  UNL     1      26.657  32.245  66.944  0.00  0.00    +0.055 A 
ATOM     11  C4  UNL     1      27.940  32.787  67.130  0.00  0.00    -0.015 A 
ATOM     12  C5  UNL     1      28.370  33.077  68.434  0.00  0.00    +0.010 A 
ATOM     13  C6  UNL     1      27.539  32.831  69.527  0.00  0.00    +0.049 A 
ATOM     14  C7  UNL     1      26.270  32.293  69.322  0.00  0.00    +0.158 A 
BRANCH   9  16
ATOM     15  C1  UNL     1      23.482  32.376  67.731  0.00  0.00    +0.277 C 
ATOM     16  O1  UNL     1      24.551  31.466  67.942  0.00  0.00    -0.491 OA
ENDBRANCH   9  16
BRANCH  14  17
ATOM     17  O2  UNL     1      25.452  32.052  70.394  0.00  0.00    -0.503 OA
ATOM     18  H7  UNL     1      25.646  32.695  71.092  0.00  0.00    +0.292 HD
ENDBRANCH  14  17
ENDBRANCH   1  11
BRANCH   8  19
ATOM     19  C14 UNL     1      32.580  31.774  63.263  0.00  0.00    -0.015 A 
ATOM     20  C15 UNL     1      33.911  32.187  63.452  0.00  0.00    +0.055 A 
ATOM     21  C16 UNL     1      34.751  32.444  62.362  0.00  0.00    +0.162 A 
ATOM     22  C17 UNL     1      34.244  32.273  61.067  0.00  0.00    +0.158 A 
ATOM     23  C18 UNL     1      32.928  31.863  60.858  0.00  0.00    +0.049 A 
ATOM     24  C19 UNL     1      32.100  31.615  61.953  0.00  0.00    +0.010 A 
BRANCH  22  25
ATOM     25  O5  UNL     1      35.058  32.515  59.993  0.00  0.00    -0.503 OA
ATOM     26  H19 UNL     1      34.513  32.750  59.227  0.00  0.00    +0.292 HD
ENDBRANCH  22  25
BRANCH  21  27
ATOM     27  O6  UNL     1      36.056  32.848  62.453  0.00  0.00    -0.491 OA
ATOM     28  C20 UNL     1      36.935  32.044  63.227  0.00  0.00    +0.277 C 
ENDBRANCH  21  27
ENDBRANCH   8  19
TORSDOF 6
ENDMDL
MODEL 8
REMARK VINA RESULT:    -8.185      2.649      8.699
REMARK INTER + INTRA:         -11.227
REMARK INTER:                 -10.425
REMARK INTRA:                  -0.803
REMARK UNBOUND:                -0.650
REMARK  Name = data/mahkota_dewa_dn/results/docking/ligands/pdb/Pinoresinol.pdb
REMARK  8 active torsions:
REMARK  status: ('A' for Active; 'I' for Inactive)
REMARK    1  A    between atoms: C1_1  and  O1_2
REMARK    2  A    between atoms: O1_2  and  C2_3
REMARK    3  A    between atoms: C4_5  and  C8_10
REMARK    4  A    between atoms: C7_8  and  O2_9
REMARK    5  A    between atoms: C13_17  and  C14_18
REMARK    6  A    between atoms: C16_20  and  O6_25
REMARK    7  A    between atoms: C17_21  and  O5_24
REMARK    8  A    between atoms: O6_25  and  C20_26
REMARK                            x       y       z     vdW  Elec       q    Type
REMARK                         _______ _______ _______ _____ _____    ______ ____
ROOT
ATOM      1  C8  UNL     1      33.421  32.672  63.356  0.00  0.00    +0.154 C 
ATOM      2  O3  UNL     1      33.796  31.424  62.681  0.00  0.00    -0.371 OA
ATOM      3  C9  UNL     1      32.868  30.375  63.095  0.00  0.00    +0.167 C 
ATOM      4  C10 UNL     1      31.732  31.139  63.700  0.00  0.00    +0.056 C 
ATOM      5  C11 UNL     1      32.492  32.196  64.440  0.00  0.00    +0.056 C 
ATOM      6  C12 UNL     1      31.356  32.960  65.044  0.00  0.00    +0.167 C 
ATOM      7  O4  UNL     1      30.429  31.912  65.459  0.00  0.00    -0.371 OA
ATOM      8  C13 UNL     1      30.804  30.663  64.784  0.00  0.00    +0.154 C 
ENDROOT
BRANCH   1  11
ATOM      9  C2  UNL     1      35.684  35.456  64.713  0.00  0.00    +0.162 A 
ATOM     10  C3  UNL     1      34.557  34.776  64.238  0.00  0.00    +0.055 A 
ATOM     11  C4  UNL     1      34.621  33.414  63.893  0.00  0.00    -0.015 A 
ATOM     12  C5  UNL     1      35.844  32.739  64.029  0.00  0.00    +0.010 A 
ATOM     13  C6  UNL     1      36.976  33.406  64.497  0.00  0.00    +0.049 A 
ATOM     14  C7  UNL     1      36.892  34.756  64.833  0.00  0.00    +0.158 A 
BRANCH   9  16
ATOM     15  C1  UNL     1      34.704  37.237  65.957  0.00  0.00    +0.277 C 
ATOM     16  O1  UNL     1      35.713  36.779  65.069  0.00  0.00    -0.491 OA
ENDBRANCH   9  16
BRANCH  14  17
ATOM     17  O2  UNL     1      38.003  35.412  65.292  0.00  0.00    -0.503 OA
ATOM     18  H7  UNL     1      38.029  35.354  66.259  0.00  0.00    +0.292 HD
ENDBRANCH  14  17
ENDBRANCH   1  11
BRANCH   8  19
ATOM     19  C14 UNL     1      29.604  29.921  64.246  0.00  0.00    -0.015 A 
ATOM     20  C15 UNL     1      29.732  28.691  63.576  0.00  0.00    +0.055 A 
ATOM     21  C16 UNL     1      28.608  28.004  63.104  0.00  0.00    +0.162 A 
ATOM     22  C17 UNL     1      27.340  28.560  63.319  0.00  0.00    +0.158 A 
ATOM     23  C18 UNL     1      27.191  29.777  63.982  0.00  0.00    +0.049 A 
ATOM     24  C19 UNL     1      28.320  30.454  64.444  0.00  0.00    +0.010 A 
BRANCH  22  25
ATOM     25  O5  UNL     1      26.232  27.893  62.867  0.00  0.00    -0.503 OA
ATOM     26  H19 UNL     1      26.096  28.101  61.930  0.00  0.00    +0.292 HD
ENDBRANCH  22  25
BRANCH  21  27
ATOM     27  O6  UNL     1      28.639  26.805  62.443  0.00  0.00    -0.491 OA
ATOM     28  C20 UNL     1      29.558  25.827  62.909  0.00  0.00    +0.277 C 
ENDBRANCH  21  27
ENDBRANCH   8  19
TORSDOF 6
ENDMDL
MODEL 9
REMARK VINA RESULT:    -8.079      2.871      8.159
REMARK INTER + INTRA:         -11.090
REMARK INTER:                 -10.367
REMARK INTRA:                  -0.724
REMARK UNBOUND:                -0.650
REMARK  Name = data/mahkota_dewa_dn/results/docking/ligands/pdb/Pinoresinol.pdb
REMARK  8 active torsions:
REMARK  status: ('A' for Active; 'I' for Inactive)
REMARK    1  A    between atoms: C1_1  and  O1_2
REMARK    2  A    between atoms: O1_2  and  C2_3
REMARK    3  A    between atoms: C4_5  and  C8_10
REMARK    4  A    between atoms: C7_8  and  O2_9
REMARK    5  A    between atoms: C13_17  and  C14_18
REMARK    6  A    between atoms: C16_20  and  O6_25
REMARK    7  A    between atoms: C17_21  and  O5_24
REMARK    8  A    between atoms: O6_25  and  C20_26
REMARK                            x       y       z     vdW  Elec       q    Type
REMARK                         _______ _______ _______ _____ _____    ______ ____
ROOT
ATOM      1  C8  UNL     1      32.058  34.258  63.884  0.00  0.00    +0.154 C 
ATOM      2  O3  UNL     1      32.605  33.366  62.855  0.00  0.00    -0.371 OA
ATOM      3  C9  UNL     1      32.083  32.022  63.080  0.00  0.00    +0.167 C 
ATOM      4  C10 UNL     1      30.928  32.251  64.005  0.00  0.00    +0.056 C 
ATOM      5  C11 UNL     1      31.516  33.293  64.904  0.00  0.00    +0.056 C 
ATOM      6  C12 UNL     1      30.362  33.523  65.828  0.00  0.00    +0.167 C 
ATOM      7  O4  UNL     1      29.839  32.178  66.054  0.00  0.00    -0.371 OA
ATOM      8  C13 UNL     1      30.387  31.286  65.025  0.00  0.00    +0.154 C 
ENDROOT
BRANCH   1  11
ATOM      9  C2  UNL     1      34.297  36.166  66.345  0.00  0.00    +0.162 A 
ATOM     10  C3  UNL     1      33.340  35.283  65.834  0.00  0.00    +0.055 A 
ATOM     11  C4  UNL     1      33.104  35.188  64.451  0.00  0.00    -0.015 A 
ATOM     12  C5  UNL     1      33.845  36.002  63.580  0.00  0.00    +0.010 A 
ATOM     13  C6  UNL     1      34.799  36.890  64.077  0.00  0.00    +0.049 A 
ATOM     14  C7  UNL     1      35.018  36.969  65.451  0.00  0.00    +0.158 A 
BRANCH   9  16
ATOM     15  C1  UNL     1      33.620  36.975  68.482  0.00  0.00    +0.277 C 
ATOM     16  O1  UNL     1      34.590  36.325  67.675  0.00  0.00    -0.491 OA
ENDBRANCH   9  16
BRANCH  14  17
ATOM     17  O2  UNL     1      35.954  37.842  65.941  0.00  0.00    -0.503 OA
ATOM     18  H7  UNL     1      35.547  38.713  66.054  0.00  0.00    +0.292 HD
ENDBRANCH  14  17
ENDBRANCH   1  11
BRANCH   8  19
ATOM     19  C14 UNL     1      29.341  30.356  64.458  0.00  0.00    -0.015 A 
ATOM     20  C15 UNL     1      29.688  29.178  63.773  0.00  0.00    +0.055 A 
ATOM     21  C16 UNL     1      28.706  28.315  63.274  0.00  0.00    +0.162 A 
ATOM     22  C17 UNL     1      27.358  28.640  63.476  0.00  0.00    +0.158 A 
ATOM     23  C18 UNL     1      26.993  29.802  64.153  0.00  0.00    +0.049 A 
ATOM     24  C19 UNL     1      27.982  30.657  64.642  0.00  0.00    +0.010 A 
BRANCH  22  25
ATOM     25  O5  UNL     1      26.389  27.800  62.997  0.00  0.00    -0.503 OA
ATOM     26  H19 UNL     1      26.516  27.678  62.045  0.00  0.00    +0.292 HD
ENDBRANCH  22  25
BRANCH  21  27
ATOM     27  O6  UNL     1      28.953  27.150  62.597  0.00  0.00    -0.491 OA
ATOM     28  C20 UNL     1      29.865  26.234  63.187  0.00  0.00    +0.277 C 
ENDBRANCH  21  27
ENDBRANCH   8  19
TORSDOF 6
ENDMDL
