MODEL 1
REMARK VINA RESULT:    -8.535      0.000      0.000
REMARK INTER + INTRA:         -10.801
REMARK INTER:                 -11.529
REMARK INTRA:                   0.728
REMARK UNBOUND:                 0.728
REMARK  Name = data/mahkota_dewa_dn/results/docking/ligands/pdb/Swertianin.pdb
REMARK  11 active torsions:
REMARK  status: ('A' for Active; 'I' for Inactive)
REMARK    1  A    between atoms: C1_1  and  O1_2
REMARK    2  A    between atoms: O1_2  and  C2_3
REMARK    3  A    between atoms: C6_7  and  C9_11
REMARK    4  A    between atoms: C7_8  and  O2_9
REMARK    5  A    between atoms: O2_9  and  C8_10
REMARK    6  A    between atoms: C13_16  and  O8_27
REMARK    7  A    between atoms: C14_17  and  O7_25
REMARK    8  A    between atoms: C15_18  and  O6_24
REMARK    9  A    between atoms: C16_19  and  O5_22
REMARK   10  A    between atoms: O5_22  and  C18_23
REMARK   11  A    between atoms: O7_25  and  C19_26
REMARK                            x       y       z     vdW  Elec       q    Type
REMARK                         _______ _______ _______ _____ _____    ______ ____
ROOT
ATOM      1  C9  UNL     1      29.397  33.459  66.822  0.00  0.00    +0.143 A 
ATOM      2  C10 UNL     1      29.251  34.271  67.874  0.00  0.00    +0.098 A 
ATOM      3  C11 UNL     1      30.367  35.146  68.271  0.00  0.00    +0.197 A 
ATOM      4  O3  UNL     1      30.226  35.873  69.245  0.00  0.00    -0.287 OA
ATOM      5  C12 UNL     1      31.595  35.074  67.442  0.00  0.00    +0.113 A 
ATOM      6  C13 UNL     1      32.735  35.845  67.707  0.00  0.00    +0.177 A 
ATOM      7  C14 UNL     1      33.898  35.741  66.921  0.00  0.00    +0.208 A 
ATOM      8  C15 UNL     1      33.893  34.853  65.846  0.00  0.00    +0.209 A 
ATOM      9  C16 UNL     1      32.745  34.097  65.547  0.00  0.00    +0.209 A 
ATOM     10  C17 UNL     1      31.608  34.187  66.360  0.00  0.00    +0.188 A 
ATOM     11  O4  UNL     1      30.549  33.362  66.070  0.00  0.00    -0.451 OA
ENDROOT
BRANCH   1  16
ATOM     12  C2  UNL     1      26.103  31.525  66.638  0.00  0.00    +0.162 A 
ATOM     13  C3  UNL     1      26.337  30.761  65.492  0.00  0.00    +0.049 A 
ATOM     14  C4  UNL     1      27.540  30.886  64.794  0.00  0.00    +0.004 A 
ATOM     15  C5  UNL     1      28.524  31.769  65.240  0.00  0.00    +0.015 A 
ATOM     16  C6  UNL     1      28.321  32.546  66.390  0.00  0.00    +0.063 A 
ATOM     17  C7  UNL     1      27.089  32.437  67.064  0.00  0.00    +0.172 A 
BRANCH  12  19
ATOM     18  C1  UNL     1      23.817  32.151  66.901  0.00  0.00    +0.277 C 
ATOM     19  O1  UNL     1      24.961  31.466  67.393  0.00  0.00    -0.491 OA
ENDBRANCH  12  19
BRANCH  17  20
ATOM     20  O2  UNL     1      26.877  33.194  68.196  0.00  0.00    -0.491 OA
ATOM     21  C8  UNL     1      27.001  32.386  69.365  0.00  0.00    +0.277 C 
ENDBRANCH  17  20
ENDBRANCH   1  16
BRANCH   9  22
ATOM     22  O5  UNL     1      32.878  33.256  64.463  0.00  0.00    -0.488 OA
ATOM     23  C18 UNL     1      32.373  33.789  63.238  0.00  0.00    +0.277 C 
ENDBRANCH   9  22
BRANCH   8  24
ATOM     24  O6  UNL     1      34.988  34.680  65.039  0.00  0.00    -0.501 OA
ATOM     25  H14 UNL     1      34.663  34.781  64.123  0.00  0.00    +0.292 HD
ENDBRANCH   8  24
BRANCH   7  26
ATOM     26  O7  UNL     1      34.914  36.563  67.343  0.00  0.00    -0.488 OA
ATOM     27  C19 UNL     1      35.116  37.790  66.654  0.00  0.00    +0.277 C 
ENDBRANCH   7  26
BRANCH   6  28
ATOM     28  O8  UNL     1      32.760  36.730  68.757  0.00  0.00    -0.503 OA
ATOM     29  H18 UNL     1      33.500  37.342  68.583  0.00  0.00    +0.292 HD
ENDBRANCH   6  28
TORSDOF 7
ENDMDL
MODEL 2
REMARK VINA RESULT:    -8.513      1.554      2.437
REMARK INTER + INTRA:         -10.771
REMARK INTER:                 -11.128
REMARK INTRA:                   0.357
REMARK UNBOUND:                 0.728
REMARK  Name = data/mahkota_dewa_dn/results/docking/ligands/pdb/Swertianin.pdb
REMARK  11 active torsions:
REMARK  status: ('A' for Active; 'I' for Inactive)
REMARK    1  A    between atoms: C1_1  and  O1_2
REMARK    2  A    between atoms: O1_2  and  C2_3
REMARK    3  A    between atoms: C6_7  and  C9_11
REMARK    4  A    between atoms: C7_8  and  O2_9
REMARK    5  A    between atoms: O2_9  and  C8_10
REMARK    6  A    between atoms: C13_16  and  O8_27
REMARK    7  A    between atoms: C14_17  and  O7_25
REMARK    8  A    between atoms: C15_18  and  O6_24
REMARK    9  A    between atoms: C16_19  and  O5_22
REMARK   10  A    between atoms: O5_22  and  C18_23
REMARK   11  A    between atoms: O7_25  and  C19_26
REMARK                            x       y       z     vdW  Elec       q    Type
REMARK                         _______ _______ _______ _____ _____    ______ ____
ROOT
ATOM      1  C9  UNL     1      29.633  33.311  66.650  0.00  0.00    +0.143 A 
ATOM      2  C10 UNL     1      29.394  34.037  67.748  0.00  0.00    +0.098 A 
ATOM      3  C11 UNL     1      30.415  34.985  68.224  0.00  0.00    +0.197 A 
ATOM      4  O3  UNL     1      30.190  35.631  69.238  0.00  0.00    -0.287 OA
ATOM      5  C12 UNL     1      31.657  35.082  67.419  0.00  0.00    +0.113 A 
ATOM      6  C13 UNL     1      32.715  35.938  67.758  0.00  0.00    +0.177 A 
ATOM      7  C14 UNL     1      33.895  35.995  66.992  0.00  0.00    +0.208 A 
ATOM      8  C15 UNL     1      33.991  35.181  65.864  0.00  0.00    +0.209 A 
ATOM      9  C16 UNL     1      32.925  34.342  65.492  0.00  0.00    +0.209 A 
ATOM     10  C17 UNL     1      31.772  34.272  66.284  0.00  0.00    +0.188 A 
ATOM     11  O4  UNL     1      30.801  33.372  65.920  0.00  0.00    -0.451 OA
ENDROOT
BRANCH   1  16
ATOM     12  C2  UNL     1      27.990  30.494  64.654  0.00  0.00    +0.162 A 
ATOM     13  C3  UNL     1      26.712  30.514  65.218  0.00  0.00    +0.049 A 
ATOM     14  C4  UNL     1      26.402  31.423  66.232  0.00  0.00    +0.004 A 
ATOM     15  C5  UNL     1      27.364  32.324  66.687  0.00  0.00    +0.015 A 
ATOM     16  C6  UNL     1      28.655  32.332  66.138  0.00  0.00    +0.063 A 
ATOM     17  C7  UNL     1      28.965  31.387  65.140  0.00  0.00    +0.172 A 
BRANCH  12  19
ATOM     18  C1  UNL     1      27.463  28.648  63.239  0.00  0.00    +0.277 C 
ATOM     19  O1  UNL     1      28.385  29.648  63.651  0.00  0.00    -0.491 OA
ENDBRANCH  12  19
BRANCH  17  20
ATOM     20  O2  UNL     1      30.229  31.385  64.592  0.00  0.00    -0.491 OA
ATOM     21  C8  UNL     1      30.988  30.285  65.095  0.00  0.00    +0.277 C 
ENDBRANCH  17  20
ENDBRANCH   1  16
BRANCH   9  22
ATOM     22  O5  UNL     1      33.155  33.589  64.361  0.00  0.00    -0.488 OA
ATOM     23  C18 UNL     1      32.513  34.083  63.184  0.00  0.00    +0.277 C 
ENDBRANCH   9  22
BRANCH   8  24
ATOM     24  O6  UNL     1      35.110  35.164  65.071  0.00  0.00    -0.501 OA
ATOM     25  H14 UNL     1      34.794  35.311  64.159  0.00  0.00    +0.292 HD
ENDBRANCH   8  24
BRANCH   7  26
ATOM     26  O7  UNL     1      34.822  36.878  67.487  0.00  0.00    -0.488 OA
ATOM     27  C19 UNL     1      35.066  38.074  66.758  0.00  0.00    +0.277 C 
ENDBRANCH   7  26
BRANCH   6  28
ATOM     28  O8  UNL     1      32.639  36.751  68.861  0.00  0.00    -0.503 OA
ATOM     29  H18 UNL     1      31.961  36.358  69.445  0.00  0.00    +0.292 HD
ENDBRANCH   6  28
TORSDOF 7
ENDMDL
MODEL 3
REMARK VINA RESULT:    -8.379      2.488      7.504
REMARK INTER + INTRA:         -10.590
REMARK INTER:                 -10.139
REMARK INTRA:                  -0.452
REMARK UNBOUND:                 0.728
REMARK  Name = data/mahkota_dewa_dn/results/docking/ligands/pdb/Swertianin.pdb
REMARK  11 active torsions:
REMARK  status: ('A' for Active; 'I' for Inactive)
REMARK    1  A    between atoms: C1_1  and  O1_2
REMARK    2  A    between atoms: O1_2  and  C2_3
REMARK    3  A    between atoms: C6_7  and  C9_11
REMARK    4  A    between atoms: C7_8  and  O2_9
REMARK    5  A    between atoms: O2_9  and  C8_10
REMARK    6  A    between atoms: C13_16  and  O8_27
REMARK    7  A    between atoms: C14_17  and  O7_25
REMARK    8  A    between atoms: C15_18  and  O6_24
REMARK    9  A    between atoms: C16_19  and  O5_22
REMARK   10  A    between atoms: O5_22  and  C18_23
REMARK   11  A    between atoms: O7_25  and  C19_26
REMARK                            x       y       z     vdW  Elec       q    Type
REMARK                         _______ _______ _______ _____ _____    ______ ____
ROOT
ATOM      1  C9  UNL     1      30.282  30.850  64.669  0.00  0.00    +0.143 A 
ATOM      2  C10 UNL     1      29.279  30.219  64.050  0.00  0.00    +0.098 A 
ATOM      3  C11 UNL     1      27.904  30.380  64.552  0.00  0.00    +0.197 A 
ATOM      4  O3  UNL     1      26.997  29.785  63.986  0.00  0.00    -0.287 OA
ATOM      5  C12 UNL     1      27.726  31.269  65.726  0.00  0.00    +0.113 A 
ATOM      6  C13 UNL     1      26.475  31.510  66.312  0.00  0.00    +0.177 A 
ATOM      7  C14 UNL     1      26.335  32.339  67.441  0.00  0.00    +0.208 A 
ATOM      8  C15 UNL     1      27.478  32.937  67.969  0.00  0.00    +0.209 A 
ATOM      9  C16 UNL     1      28.735  32.733  67.372  0.00  0.00    +0.209 A 
ATOM     10  C17 UNL     1      28.862  31.879  66.269  0.00  0.00    +0.188 A 
ATOM     11  O4  UNL     1      30.126  31.649  65.783  0.00  0.00    -0.451 OA
ENDROOT
BRANCH   1  16
ATOM     12  C2  UNL     1      33.717  31.559  63.148  0.00  0.00    +0.162 A 
ATOM     13  C3  UNL     1      34.347  30.336  63.395  0.00  0.00    +0.049 A 
ATOM     14  C4  UNL     1      33.662  29.311  64.052  0.00  0.00    +0.004 A 
ATOM     15  C5  UNL     1      32.341  29.495  64.461  0.00  0.00    +0.015 A 
ATOM     16  C6  UNL     1      31.681  30.710  64.223  0.00  0.00    +0.063 A 
ATOM     17  C7  UNL     1      32.393  31.748  63.591  0.00  0.00    +0.172 A 
BRANCH  12  19
ATOM     18  C1  UNL     1      35.551  33.078  63.003  0.00  0.00    +0.277 C 
ATOM     19  O1  UNL     1      34.302  32.618  62.504  0.00  0.00    -0.491 OA
ENDBRANCH  12  19
BRANCH  17  20
ATOM     20  O2  UNL     1      31.756  32.946  63.351  0.00  0.00    -0.491 OA
ATOM     21  C8  UNL     1      32.127  33.913  64.333  0.00  0.00    +0.277 C 
ENDBRANCH  17  20
ENDBRANCH   1  16
BRANCH   9  22
ATOM     22  O5  UNL     1      29.779  33.379  67.997  0.00  0.00    -0.488 OA
ATOM     23  C18 UNL     1      30.129  34.635  67.413  0.00  0.00    +0.277 C 
ENDBRANCH   9  22
BRANCH   8  24
ATOM     24  O6  UNL     1      27.431  33.747  69.075  0.00  0.00    -0.501 OA
ATOM     25  H14 UNL     1      28.256  34.271  69.058  0.00  0.00    +0.292 HD
ENDBRANCH   8  24
BRANCH   7  26
ATOM     26  O7  UNL     1      25.038  32.442  67.881  0.00  0.00    -0.488 OA
ATOM     27  C19 UNL     1      24.654  31.685  69.022  0.00  0.00    +0.277 C 
ENDBRANCH   7  26
BRANCH   6  28
ATOM     28  O8  UNL     1      25.336  30.934  65.805  0.00  0.00    -0.503 OA
ATOM     29  H18 UNL     1      24.586  31.357  66.267  0.00  0.00    +0.292 HD
ENDBRANCH   6  28
TORSDOF 7
ENDMDL
MODEL 4
REMARK VINA RESULT:    -8.203      1.127      2.985
REMARK INTER + INTRA:         -10.352
REMARK INTER:                 -10.945
REMARK INTRA:                   0.593
REMARK UNBOUND:                 0.728
REMARK  Name = data/mahkota_dewa_dn/results/docking/ligands/pdb/Swertianin.pdb
REMARK  11 active torsions:
REMARK  status: ('A' for Active; 'I' for Inactive)
REMARK    1  A    between atoms: C1_1  and  O1_2
REMARK    2  A    between atoms: O1_2  and  C2_3
REMARK    3  A    between atoms: C6_7  and  C9_11
REMARK    4  A    between atoms: C7_8  and  O2_9
REMARK    5  A    between atoms: O2_9  and  C8_10
REMARK    6  A    between atoms: C13_16  and  O8_27
REMARK    7  A    between atoms: C14_17  and  O7_25
REMARK    8  A    between atoms: C15_18  and  O6_24
REMARK    9  A    between atoms: C16_19  and  O5_22
REMARK   10  A    between atoms: O5_22  and  C18_23
REMARK   11  A    between atoms: O7_25  and  C19_26
REMARK                            x       y       z     vdW  Elec       q    Type
REMARK                         _______ _______ _______ _____ _____    ______ ____
ROOT
ATOM      1  C9  UNL     1      29.887  32.716  65.596  0.00  0.00    +0.143 A 
ATOM      2  C10 UNL     1      30.561  32.536  64.456  0.00  0.00    +0.098 A 
ATOM      3  C11 UNL     1      31.891  33.149  64.298  0.00  0.00    +0.197 A 
ATOM      4  O3  UNL     1      32.491  32.989  63.244  0.00  0.00    -0.287 OA
ATOM      5  C12 UNL     1      32.406  33.924  65.453  0.00  0.00    +0.113 A 
ATOM      6  C13 UNL     1      33.652  34.565  65.441  0.00  0.00    +0.177 A 
ATOM      7  C14 UNL     1      34.109  35.316  66.541  0.00  0.00    +0.208 A 
ATOM      8  C15 UNL     1      33.293  35.404  67.667  0.00  0.00    +0.209 A 
ATOM      9  C16 UNL     1      32.054  34.738  67.708  0.00  0.00    +0.209 A 
ATOM     10  C17 UNL     1      31.600  34.022  66.593  0.00  0.00    +0.188 A 
ATOM     11  O4  UNL     1      30.346  33.467  66.659  0.00  0.00    -0.451 OA
ENDROOT
BRANCH   1  16
ATOM     12  C2  UNL     1      26.382  32.027  66.960  0.00  0.00    +0.162 A 
ATOM     13  C3  UNL     1      26.004  30.969  66.129  0.00  0.00    +0.049 A 
ATOM     14  C4  UNL     1      26.876  30.502  65.142  0.00  0.00    +0.004 A 
ATOM     15  C5  UNL     1      28.134  31.083  64.981  0.00  0.00    +0.015 A 
ATOM     16  C6  UNL     1      28.543  32.144  65.803  0.00  0.00    +0.063 A 
ATOM     17  C7  UNL     1      27.642  32.628  66.771  0.00  0.00    +0.172 A 
BRANCH  12  19
ATOM     18  C1  UNL     1      24.769  31.645  68.675  0.00  0.00    +0.277 C 
ATOM     19  O1  UNL     1      25.602  32.547  67.960  0.00  0.00    -0.491 OA
ENDBRANCH  12  19
BRANCH  17  20
ATOM     20  O2  UNL     1      28.032  33.669  67.586  0.00  0.00    -0.491 OA
ATOM     21  C8  UNL     1      28.150  33.226  68.937  0.00  0.00    +0.277 C 
ENDBRANCH  17  20
ENDBRANCH   1  16
BRANCH   9  22
ATOM     22  O5  UNL     1      31.347  34.912  68.878  0.00  0.00    -0.488 OA
ATOM     23  C18 UNL     1      30.424  36.002  68.853  0.00  0.00    +0.277 C 
ENDBRANCH   9  22
BRANCH   8  24
ATOM     24  O6  UNL     1      33.655  36.127  68.775  0.00  0.00    -0.501 OA
ATOM     25  H14 UNL     1      33.280  37.020  68.646  0.00  0.00    +0.292 HD
ENDBRANCH   8  24
BRANCH   7  26
ATOM     26  O7  UNL     1      35.344  35.882  66.337  0.00  0.00    -0.488 OA
ATOM     27  C19 UNL     1      35.402  37.250  65.958  0.00  0.00    +0.277 C 
ENDBRANCH   7  26
BRANCH   6  28
ATOM     28  O8  UNL     1      34.474  34.489  64.344  0.00  0.00    -0.503 OA
ATOM     29  H18 UNL     1      34.329  35.309  63.834  0.00  0.00    +0.292 HD
ENDBRANCH   6  28
TORSDOF 7
ENDMDL
MODEL 5
REMARK VINA RESULT:    -8.176      2.299      7.061
REMARK INTER + INTRA:         -10.315
REMARK INTER:                  -9.941
REMARK INTRA:                  -0.374
REMARK UNBOUND:                 0.728
REMARK  Name = data/mahkota_dewa_dn/results/docking/ligands/pdb/Swertianin.pdb
REMARK  11 active torsions:
REMARK  status: ('A' for Active; 'I' for Inactive)
REMARK    1  A    between atoms: C1_1  and  O1_2
REMARK    2  A    between atoms: O1_2  and  C2_3
REMARK    3  A    between atoms: C6_7  and  C9_11
REMARK    4  A    between atoms: C7_8  and  O2_9
REMARK    5  A    between atoms: O2_9  and  C8_10
REMARK    6  A    between atoms: C13_16  and  O8_27
REMARK    7  A    between atoms: C14_17  and  O7_25
REMARK    8  A    between atoms: C15_18  and  O6_24
REMARK    9  A    between atoms: C16_19  and  O5_22
REMARK   10  A    between atoms: O5_22  and  C18_23
REMARK   11  A    between atoms: O7_25  and  C19_26
REMARK                            x       y       z     vdW  Elec       q    Type
REMARK                         _______ _______ _______ _____ _____    ______ ____
ROOT
ATOM      1  C9  UNL     1      30.473  33.908  65.626  0.00  0.00    +0.143 A 
ATOM      2  C10 UNL     1      30.603  34.480  66.827  0.00  0.00    +0.098 A 
ATOM      3  C11 UNL     1      29.587  34.226  67.863  0.00  0.00    +0.197 A 
ATOM      4  O3  UNL     1      29.710  34.769  68.952  0.00  0.00    -0.287 OA
ATOM      5  C12 UNL     1      28.477  33.314  67.494  0.00  0.00    +0.113 A 
ATOM      6  C13 UNL     1      27.439  32.987  68.378  0.00  0.00    +0.177 A 
ATOM      7  C14 UNL     1      26.383  32.138  67.997  0.00  0.00    +0.208 A 
ATOM      8  C15 UNL     1      26.392  31.608  66.707  0.00  0.00    +0.209 A 
ATOM      9  C16 UNL     1      27.444  31.899  65.820  0.00  0.00    +0.209 A 
ATOM     10  C17 UNL     1      28.470  32.772  66.204  0.00  0.00    +0.188 A 
ATOM     11  O4  UNL     1      29.423  33.088  65.267  0.00  0.00    -0.451 OA
ENDROOT
BRANCH   1  16
ATOM     12  C2  UNL     1      33.263  33.422  63.057  0.00  0.00    +0.162 A 
ATOM     13  C3  UNL     1      33.284  34.696  62.482  0.00  0.00    +0.049 A 
ATOM     14  C4  UNL     1      32.399  35.683  62.921  0.00  0.00    +0.004 A 
ATOM     15  C5  UNL     1      31.491  35.409  63.944  0.00  0.00    +0.015 A 
ATOM     16  C6  UNL     1      31.448  34.142  64.544  0.00  0.00    +0.063 A 
ATOM     17  C7  UNL     1      32.321  33.145  64.068  0.00  0.00    +0.172 A 
BRANCH  12  19
ATOM     18  C1  UNL     1      34.666  32.436  61.400  0.00  0.00    +0.277 C 
ATOM     19  O1  UNL     1      34.095  32.394  62.701  0.00  0.00    -0.491 OA
ENDBRANCH  12  19
BRANCH  17  20
ATOM     20  O2  UNL     1      32.290  31.896  64.649  0.00  0.00    -0.491 OA
ATOM     21  C8  UNL     1      31.610  30.970  63.803  0.00  0.00    +0.277 C 
ENDBRANCH  17  20
ENDBRANCH   1  16
BRANCH   9  22
ATOM     22  O5  UNL     1      27.327  31.314  64.578  0.00  0.00    -0.488 OA
ATOM     23  C18 UNL     1      28.046  30.088  64.433  0.00  0.00    +0.277 C 
ENDBRANCH   9  22
BRANCH   8  24
ATOM     24  O6  UNL     1      25.394  30.784  66.251  0.00  0.00    -0.501 OA
ATOM     25  H14 UNL     1      25.093  30.275  67.028  0.00  0.00    +0.292 HD
ENDBRANCH   8  24
BRANCH   7  26
ATOM     26  O7  UNL     1      25.454  31.947  68.990  0.00  0.00    -0.488 OA
ATOM     27  C19 UNL     1      24.150  32.480  68.801  0.00  0.00    +0.277 C 
ENDBRANCH   7  26
BRANCH   6  28
ATOM     28  O8  UNL     1      27.413  33.494  69.653  0.00  0.00    -0.503 OA
ATOM     29  H18 UNL     1      26.523  33.877  69.778  0.00  0.00    +0.292 HD
ENDBRANCH   6  28
TORSDOF 7
ENDMDL
MODEL 6
REMARK VINA RESULT:    -8.135      2.523      7.473
REMARK INTER + INTRA:         -10.261
REMARK INTER:                  -9.956
REMARK INTRA:                  -0.305
REMARK UNBOUND:                 0.728
REMARK  Name = data/mahkota_dewa_dn/results/docking/ligands/pdb/Swertianin.pdb
REMARK  11 active torsions:
REMARK  status: ('A' for Active; 'I' for Inactive)
REMARK    1  A    between atoms: C1_1  and  O1_2
REMARK    2  A    between atoms: O1_2  and  C2_3
REMARK    3  A    between atoms: C6_7  and  C9_11
REMARK    4  A    between atoms: C7_8  and  O2_9
REMARK    5  A    between atoms: O2_9  and  C8_10
REMARK    6  A    between atoms: C13_16  and  O8_27
REMARK    7  A    between atoms: C14_17  and  O7_25
REMARK    8  A    between atoms: C15_18  and  O6_24
REMARK    9  A    between atoms: C16_19  and  O5_22
REMARK   10  A    between atoms: O5_22  and  C18_23
REMARK   11  A    between atoms: O7_25  and  C19_26
REMARK                            x       y       z     vdW  Elec       q    Type
REMARK                         _______ _______ _______ _____ _____    ______ ____
ROOT
ATOM      1  C9  UNL     1      30.484  33.089  66.091  0.00  0.00    +0.143 A 
ATOM      2  C10 UNL     1      29.248  33.265  66.570  0.00  0.00    +0.098 A 
ATOM      3  C11 UNL     1      28.173  32.348  66.154  0.00  0.00    +0.197 A 
ATOM      4  O3  UNL     1      27.044  32.530  66.587  0.00  0.00    -0.287 OA
ATOM      5  C12 UNL     1      28.555  31.256  65.226  0.00  0.00    +0.113 A 
ATOM      6  C13 UNL     1      27.636  30.314  64.743  0.00  0.00    +0.177 A 
ATOM      7  C14 UNL     1      28.017  29.301  63.843  0.00  0.00    +0.208 A 
ATOM      8  C15 UNL     1      29.351  29.240  63.441  0.00  0.00    +0.209 A 
ATOM      9  C16 UNL     1      30.293  30.157  63.943  0.00  0.00    +0.209 A 
ATOM     10  C17 UNL     1      29.890  31.180  64.812  0.00  0.00    +0.188 A 
ATOM     11  O4  UNL     1      30.836  32.097  65.199  0.00  0.00    -0.451 OA
ENDROOT
BRANCH   1  16
ATOM     12  C2  UNL     1      33.228  35.747  65.948  0.00  0.00    +0.162 A 
ATOM     13  C3  UNL     1      33.727  35.648  67.249  0.00  0.00    +0.049 A 
ATOM     14  C4  UNL     1      33.170  34.738  68.150  0.00  0.00    +0.004 A 
ATOM     15  C5  UNL     1      32.115  33.914  67.758  0.00  0.00    +0.015 A 
ATOM     16  C6  UNL     1      31.595  33.988  66.457  0.00  0.00    +0.063 A 
ATOM     17  C7  UNL     1      32.142  34.934  65.568  0.00  0.00    +0.172 A 
BRANCH  12  19
ATOM     18  C1  UNL     1      35.098  36.915  65.039  0.00  0.00    +0.277 C 
ATOM     19  O1  UNL     1      33.713  36.601  64.992  0.00  0.00    -0.491 OA
ENDBRANCH  12  19
BRANCH  17  20
ATOM     20  O2  UNL     1      31.641  35.015  64.287  0.00  0.00    -0.491 OA
ATOM     21  C8  UNL     1      32.492  34.322  63.375  0.00  0.00    +0.277 C 
ENDBRANCH  17  20
ENDBRANCH   1  16
BRANCH   9  22
ATOM     22  O5  UNL     1      31.572  29.987  63.461  0.00  0.00    -0.488 OA
ATOM     23  C18 UNL     1      32.441  29.264  64.335  0.00  0.00    +0.277 C 
ENDBRANCH   9  22
BRANCH   8  24
ATOM     24  O6  UNL     1      29.803  28.295  62.557  0.00  0.00    -0.501 OA
ATOM     25  H14 UNL     1      29.006  27.934  62.122  0.00  0.00    +0.292 HD
ENDBRANCH   8  24
BRANCH   7  26
ATOM     26  O7  UNL     1      26.978  28.485  63.472  0.00  0.00    -0.488 OA
ATOM     27  C19 UNL     1      26.507  28.563  62.133  0.00  0.00    +0.277 C 
ENDBRANCH   7  26
BRANCH   6  28
ATOM     28  O8  UNL     1      26.319  30.353  65.129  0.00  0.00    -0.503 OA
ATOM     29  H18 UNL     1      26.082  29.442  65.391  0.00  0.00    +0.292 HD
ENDBRANCH   6  28
TORSDOF 7
ENDMDL
MODEL 7
REMARK VINA RESULT:    -8.033      1.998      4.091
REMARK INTER + INTRA:         -10.122
REMARK INTER:                 -10.359
REMARK INTRA:                   0.237
REMARK UNBOUND:                 0.728
REMARK  Name = data/mahkota_dewa_dn/results/docking/ligands/pdb/Swertianin.pdb
REMARK  11 active torsions:
REMARK  status: ('A' for Active; 'I' for Inactive)
REMARK    1  A    between atoms: C1_1  and  O1_2
REMARK    2  A    between atoms: O1_2  and  C2_3
REMARK    3  A    between atoms: C6_7  and  C9_11
REMARK    4  A    between atoms: C7_8  and  O2_9
REMARK    5  A    between atoms: O2_9  and  C8_10
REMARK    6  A    between atoms: C13_16  and  O8_27
REMARK    7  A    between atoms: C14_17  and  O7_25
REMARK    8  A    between atoms: C15_18  and  O6_24
REMARK    9  A    between atoms: C16_19  and  O5_22
REMARK   10  A    between atoms: O5_22  and  C18_23
REMARK   11  A    between atoms: O7_25  and  C19_26
REMARK                            x       y       z     vdW  Elec       q    Type
REMARK                         _______ _______ _______ _____ _____    ______ ____
ROOT
ATOM      1  C9  UNL     1      30.833  32.649  65.056  0.00  0.00    +0.143 A 
ATOM      2  C10 UNL     1      31.645  32.706  63.995  0.00  0.00    +0.098 A 
ATOM      3  C11 UNL     1      32.834  33.574  64.041  0.00  0.00    +0.197 A 
ATOM      4  O3  UNL     1      33.560  33.629  63.058  0.00  0.00    -0.287 OA
ATOM      5  C12 UNL     1      33.060  34.323  65.301  0.00  0.00    +0.113 A 
ATOM      6  C13 UNL     1      34.148  35.189  65.484  0.00  0.00    +0.177 A 
ATOM      7  C14 UNL     1      34.328  35.909  66.680  0.00  0.00    +0.208 A 
ATOM      8  C15 UNL     1      33.398  35.735  67.704  0.00  0.00    +0.209 A 
ATOM      9  C16 UNL     1      32.320  34.844  67.549  0.00  0.00    +0.209 A 
ATOM     10  C17 UNL     1      32.137  34.161  66.340  0.00  0.00    +0.188 A 
ATOM     11  O4  UNL     1      31.019  33.372  66.215  0.00  0.00    -0.451 OA
ENDROOT
BRANCH   1  16
ATOM     12  C2  UNL     1      28.337  29.831  64.386  0.00  0.00    +0.162 A 
ATOM     13  C3  UNL     1      27.242  30.301  65.115  0.00  0.00    +0.049 A 
ATOM     14  C4  UNL     1      27.326  31.508  65.814  0.00  0.00    +0.004 A 
ATOM     15  C5  UNL     1      28.501  32.258  65.785  0.00  0.00    +0.015 A 
ATOM     16  C6  UNL     1      29.617  31.814  65.059  0.00  0.00    +0.063 A 
ATOM     17  C7  UNL     1      29.531  30.579  64.387  0.00  0.00    +0.172 A 
BRANCH  12  19
ATOM     18  C1  UNL     1      27.519  28.606  62.511  0.00  0.00    +0.277 C 
ATOM     19  O1  UNL     1      28.348  28.667  63.663  0.00  0.00    -0.491 OA
ENDBRANCH  12  19
BRANCH  17  20
ATOM     20  O2  UNL     1      30.619  30.132  63.669  0.00  0.00    -0.491 OA
ATOM     21  C8  UNL     1      31.353  29.169  64.426  0.00  0.00    +0.277 C 
ENDBRANCH  17  20
ENDBRANCH   1  16
BRANCH   9  22
ATOM     22  O5  UNL     1      31.475  34.771  68.635  0.00  0.00    -0.488 OA
ATOM     23  C18 UNL     1      30.357  35.658  68.572  0.00  0.00    +0.277 C 
ENDBRANCH   9  22
BRANCH   8  24
ATOM     24  O6  UNL     1      33.491  36.408  68.895  0.00  0.00    -0.501 OA
ATOM     25  H14 UNL     1      32.833  35.994  69.488  0.00  0.00    +0.292 HD
ENDBRANCH   8  24
BRANCH   7  26
ATOM     26  O7  UNL     1      35.439  36.716  66.667  0.00  0.00    -0.488 OA
ATOM     27  C19 UNL     1      35.266  38.092  66.357  0.00  0.00    +0.277 C 
ENDBRANCH   7  26
BRANCH   6  28
ATOM     28  O8  UNL     1      35.078  35.372  64.490  0.00  0.00    -0.503 OA
ATOM     29  H18 UNL     1      35.946  35.426  64.934  0.00  0.00    +0.292 HD
ENDBRANCH   6  28
TORSDOF 7
ENDMDL
MODEL 8
REMARK VINA RESULT:    -7.976      2.972      7.567
REMARK INTER + INTRA:         -10.046
REMARK INTER:                  -9.752
REMARK INTRA:                  -0.294
REMARK UNBOUND:                 0.728
REMARK  Name = data/mahkota_dewa_dn/results/docking/ligands/pdb/Swertianin.pdb
REMARK  11 active torsions:
REMARK  status: ('A' for Active; 'I' for Inactive)
REMARK    1  A    between atoms: C1_1  and  O1_2
REMARK    2  A    between atoms: O1_2  and  C2_3
REMARK    3  A    between atoms: C6_7  and  C9_11
REMARK    4  A    between atoms: C7_8  and  O2_9
REMARK    5  A    between atoms: O2_9  and  C8_10
REMARK    6  A    between atoms: C13_16  and  O8_27
REMARK    7  A    between atoms: C14_17  and  O7_25
REMARK    8  A    between atoms: C15_18  and  O6_24
REMARK    9  A    between atoms: C16_19  and  O5_22
REMARK   10  A    between atoms: O5_22  and  C18_23
REMARK   11  A    between atoms: O7_25  and  C19_26
REMARK                            x       y       z     vdW  Elec       q    Type
REMARK                         _______ _______ _______ _____ _____    ______ ____
ROOT
ATOM      1  C9  UNL     1      30.215  30.893  64.426  0.00  0.00    +0.143 A 
ATOM      2  C10 UNL     1      29.187  30.226  63.891  0.00  0.00    +0.098 A 
ATOM      3  C11 UNL     1      27.849  30.357  64.492  0.00  0.00    +0.197 A 
ATOM      4  O3  UNL     1      26.921  29.729  64.003  0.00  0.00    -0.287 OA
ATOM      5  C12 UNL     1      27.734  31.259  65.664  0.00  0.00    +0.113 A 
ATOM      6  C13 UNL     1      26.524  31.475  66.339  0.00  0.00    +0.177 A 
ATOM      7  C14 UNL     1      26.444  32.316  67.464  0.00  0.00    +0.208 A 
ATOM      8  C15 UNL     1      27.605  32.954  67.898  0.00  0.00    +0.209 A 
ATOM      9  C16 UNL     1      28.820  32.774  67.212  0.00  0.00    +0.209 A 
ATOM     10  C17 UNL     1      28.889  31.907  66.113  0.00  0.00    +0.188 A 
ATOM     11  O4  UNL     1      30.120  31.704  65.538  0.00  0.00    -0.451 OA
ENDROOT
BRANCH   1  16
ATOM     12  C2  UNL     1      33.699  29.594  63.536  0.00  0.00    +0.162 A 
ATOM     13  C3  UNL     1      34.183  30.684  62.807  0.00  0.00    +0.049 A 
ATOM     14  C4  UNL     1      33.382  31.810  62.607  0.00  0.00    +0.004 A 
ATOM     15  C5  UNL     1      32.094  31.861  63.140  0.00  0.00    +0.015 A 
ATOM     16  C6  UNL     1      31.581  30.785  63.879  0.00  0.00    +0.063 A 
ATOM     17  C7  UNL     1      32.386  29.641  64.044  0.00  0.00    +0.172 A 
BRANCH  12  19
ATOM     18  C1  UNL     1      35.257  27.963  62.760  0.00  0.00    +0.277 C 
ATOM     19  O1  UNL     1      34.412  28.452  63.792  0.00  0.00    -0.491 OA
ENDBRANCH  12  19
BRANCH  17  20
ATOM     20  O2  UNL     1      31.895  28.577  64.769  0.00  0.00    -0.491 OA
ATOM     21  C8  UNL     1      31.456  27.539  63.894  0.00  0.00    +0.277 C 
ENDBRANCH  17  20
ENDBRANCH   1  16
BRANCH   9  22
ATOM     22  O5  UNL     1      29.889  33.458  67.748  0.00  0.00    -0.488 OA
ATOM     23  C18 UNL     1      30.202  34.682  67.081  0.00  0.00    +0.277 C 
ENDBRANCH   9  22
BRANCH   8  24
ATOM     24  O6  UNL     1      27.618  33.778  68.994  0.00  0.00    -0.501 OA
ATOM     25  H14 UNL     1      26.930  34.452  68.829  0.00  0.00    +0.292 HD
ENDBRANCH   8  24
BRANCH   7  26
ATOM     26  O7  UNL     1      25.181  32.391  67.998  0.00  0.00    -0.488 OA
ATOM     27  C19 UNL     1      24.922  31.697  69.211  0.00  0.00    +0.277 C 
ENDBRANCH   7  26
BRANCH   6  28
ATOM     28  O8  UNL     1      25.367  30.860  65.926  0.00  0.00    -0.503 OA
ATOM     29  H18 UNL     1      25.402  29.948  66.272  0.00  0.00    +0.292 HD
ENDBRANCH   6  28
TORSDOF 7
ENDMDL
MODEL 9
REMARK VINA RESULT:    -7.617      2.425      4.565
REMARK INTER + INTRA:          -9.561
REMARK INTER:                  -9.419
REMARK INTRA:                  -0.142
REMARK UNBOUND:                 0.728
REMARK  Name = data/mahkota_dewa_dn/results/docking/ligands/pdb/Swertianin.pdb
REMARK  11 active torsions:
REMARK  status: ('A' for Active; 'I' for Inactive)
REMARK    1  A    between atoms: C1_1  and  O1_2
REMARK    2  A    between atoms: O1_2  and  C2_3
REMARK    3  A    between atoms: C6_7  and  C9_11
REMARK    4  A    between atoms: C7_8  and  O2_9
REMARK    5  A    between atoms: O2_9  and  C8_10
REMARK    6  A    between atoms: C13_16  and  O8_27
REMARK    7  A    between atoms: C14_17  and  O7_25
REMARK    8  A    between atoms: C15_18  and  O6_24
REMARK    9  A    between atoms: C16_19  and  O5_22
REMARK   10  A    between atoms: O5_22  and  C18_23
REMARK   11  A    between atoms: O7_25  and  C19_26
REMARK                            x       y       z     vdW  Elec       q    Type
REMARK                         _______ _______ _______ _____ _____    ______ ____
ROOT
ATOM      1  C9  UNL     1      30.202  31.171  64.925  0.00  0.00    +0.143 A 
ATOM      2  C10 UNL     1      30.730  29.948  64.808  0.00  0.00    +0.098 A 
ATOM      3  C11 UNL     1      32.062  29.790  64.199  0.00  0.00    +0.197 A 
ATOM      4  O3  UNL     1      32.526  28.664  64.084  0.00  0.00    -0.287 OA
ATOM      5  C12 UNL     1      32.746  31.033  63.768  0.00  0.00    +0.113 A 
ATOM      6  C13 UNL     1      34.013  31.033  63.169  0.00  0.00    +0.177 A 
ATOM      7  C14 UNL     1      34.632  32.224  62.745  0.00  0.00    +0.208 A 
ATOM      8  C15 UNL     1      33.958  33.428  62.946  0.00  0.00    +0.209 A 
ATOM      9  C16 UNL     1      32.701  33.448  63.576  0.00  0.00    +0.209 A 
ATOM     10  C17 UNL     1      32.084  32.251  63.961  0.00  0.00    +0.188 A 
ATOM     11  O4  UNL     1      30.819  32.326  64.492  0.00  0.00    -0.451 OA
ENDROOT
BRANCH   1  16
ATOM     12  C2  UNL     1      27.349  32.367  67.171  0.00  0.00    +0.162 A 
ATOM     13  C3  UNL     1      26.272  31.724  66.554  0.00  0.00    +0.049 A 
ATOM     14  C4  UNL     1      26.479  30.928  65.425  0.00  0.00    +0.004 A 
ATOM     15  C5  UNL     1      27.763  30.760  64.908  0.00  0.00    +0.015 A 
ATOM     16  C6  UNL     1      28.865  31.388  65.508  0.00  0.00    +0.063 A 
ATOM     17  C7  UNL     1      28.639  32.217  66.624  0.00  0.00    +0.172 A 
BRANCH  12  19
ATOM     18  C1  UNL     1      26.414  32.699  69.340  0.00  0.00    +0.277 C 
ATOM     19  O1  UNL     1      27.247  33.159  68.285  0.00  0.00    -0.491 OA
ENDBRANCH  12  19
BRANCH  17  20
ATOM     20  O2  UNL     1      29.712  32.839  67.223  0.00  0.00    -0.491 OA
ATOM     21  C8  UNL     1      29.690  34.240  66.952  0.00  0.00    +0.277 C 
ENDBRANCH  17  20
ENDBRANCH   1  16
BRANCH   9  22
ATOM     22  O5  UNL     1      32.144  34.702  63.706  0.00  0.00    -0.488 OA
ATOM     23  C18 UNL     1      32.489  35.377  64.917  0.00  0.00    +0.277 C 
ENDBRANCH   9  22
BRANCH   8  24
ATOM     24  O6  UNL     1      34.483  34.631  62.550  0.00  0.00    -0.501 OA
ATOM     25  H14 UNL     1      35.340  34.423  62.129  0.00  0.00    +0.292 HD
ENDBRANCH   8  24
BRANCH   7  26
ATOM     26  O7  UNL     1      35.862  32.022  62.169  0.00  0.00    -0.488 OA
ATOM     27  C19 UNL     1      37.021  32.290  62.947  0.00  0.00    +0.277 C 
ENDBRANCH   7  26
BRANCH   6  28
ATOM     28  O8  UNL     1      34.697  29.859  62.967  0.00  0.00    -0.503 OA
ATOM     29  H18 UNL     1      35.615  30.111  62.746  0.00  0.00    +0.292 HD
ENDBRANCH   6  28
TORSDOF 7
ENDMDL
