MODEL 1
REMARK VINA RESULT:    -8.759      0.000      0.000
REMARK INTER + INTRA:         -12.992
REMARK INTER:                 -12.344
REMARK INTRA:                  -0.649
REMARK UNBOUND:                -0.649
REMARK  Name = data/mahkota_dewa_dn/results/docking/ligands/pdb/Matairesinol.pdb
REMARK  10 active torsions:
REMARK  status: ('A' for Active; 'I' for Inactive)
REMARK    1  A    between atoms: C1_1  and  O1_2
REMARK    2  A    between atoms: O1_2  and  C2_3
REMARK    3  A    between atoms: C3_4  and  O6_26
REMARK    4  A    between atoms: C6_7  and  C8_9
REMARK    5  A    between atoms: C8_9  and  C9_10
REMARK    6  A    between atoms: C12_15  and  C13_16
REMARK    7  A    between atoms: C13_16  and  C14_17
REMARK    8  A    between atoms: C16_19  and  O5_24
REMARK    9  A    between atoms: C17_20  and  O4_23
REMARK   10  A    between atoms: O5_24  and  C20_25
REMARK                            x       y       z     vdW  Elec       q    Type
REMARK                         _______ _______ _______ _____ _____    ______ ____
ROOT
ATOM      1  C9  UNL     1      30.050  32.294  66.353  0.00  0.00    +0.045 C 
ATOM      2  C10 UNL     1      31.200  32.981  67.064  0.00  0.00    +0.236 C 
ATOM      3  O2  UNL     1      31.744  33.887  66.106  0.00  0.00    -0.464 OA
ATOM      4  C11 UNL     1      30.789  34.190  65.178  0.00  0.00    +0.311 C 
ATOM      5  O3  UNL     1      30.954  34.991  64.273  0.00  0.00    -0.251 OA
ATOM      6  C12 UNL     1      29.520  33.422  65.461  0.00  0.00    +0.109 C 
ENDROOT
BRANCH   1   7
ATOM      7  C8  UNL     1      30.521  31.099  65.493  0.00  0.00    +0.043 C 
BRANCH   7  12
ATOM      8  C2  UNL     1      28.625  28.951  62.964  0.00  0.00    +0.162 A 
ATOM      9  C3  UNL     1      27.307  29.150  63.396  0.00  0.00    +0.158 A 
ATOM     10  C4  UNL     1      27.022  29.972  64.487  0.00  0.00    +0.049 A 
ATOM     11  C5  UNL     1      28.065  30.607  65.162  0.00  0.00    +0.007 A 
ATOM     12  C6  UNL     1      29.391  30.421  64.753  0.00  0.00    -0.043 A 
ATOM     13  C7  UNL     1      29.660  29.595  63.648  0.00  0.00    +0.053 A 
BRANCH   8  15
ATOM     14  C1  UNL     1      30.102  27.659  61.607  0.00  0.00    +0.277 C 
ATOM     15  O1  UNL     1      28.789  28.123  61.884  0.00  0.00    -0.491 OA
ENDBRANCH   8  15
BRANCH   9  16
ATOM     16  O6  UNL     1      26.284  28.524  62.734  0.00  0.00    -0.503 OA
ATOM     17  H22 UNL     1      26.630  28.115  61.927  0.00  0.00    +0.292 HD
ENDBRANCH   9  16
ENDBRANCH   7  12
ENDBRANCH   1   7
BRANCH   6  18
ATOM     18  C13 UNL     1      28.514  34.331  66.183  0.00  0.00    +0.050 C 
BRANCH  18  19
ATOM     19  C14 UNL     1      27.767  33.600  67.277  0.00  0.00    -0.043 A 
ATOM     20  C15 UNL     1      26.572  32.919  66.991  0.00  0.00    +0.053 A 
ATOM     21  C16 UNL     1      25.886  32.220  67.990  0.00  0.00    +0.162 A 
ATOM     22  C17 UNL     1      26.400  32.228  69.292  0.00  0.00    +0.158 A 
ATOM     23  C18 UNL     1      27.585  32.900  69.592  0.00  0.00    +0.049 A 
ATOM     24  C19 UNL     1      28.270  33.579  68.584  0.00  0.00    +0.007 A 
BRANCH  22  25
ATOM     25  O4  UNL     1      25.730  31.559  70.282  0.00  0.00    -0.503 OA
ATOM     26  H18 UNL     1      26.370  31.085  70.833  0.00  0.00    +0.292 HD
ENDBRANCH  22  25
BRANCH  21  27
ATOM     27  O5  UNL     1      24.720  31.526  67.798  0.00  0.00    -0.491 OA
ATOM     28  C20 UNL     1      23.524  32.290  67.704  0.00  0.00    +0.277 C 
ENDBRANCH  21  27
ENDBRANCH  18  19
ENDBRANCH   6  18
TORSDOF 8
ENDMDL
MODEL 2
REMARK VINA RESULT:    -8.649      3.407      7.446
REMARK INTER + INTRA:         -12.837
REMARK INTER:                 -12.179
REMARK INTRA:                  -0.658
REMARK UNBOUND:                -0.649
REMARK  Name = data/mahkota_dewa_dn/results/docking/ligands/pdb/Matairesinol.pdb
REMARK  10 active torsions:
REMARK  status: ('A' for Active; 'I' for Inactive)
REMARK    1  A    between atoms: C1_1  and  O1_2
REMARK    2  A    between atoms: O1_2  and  C2_3
REMARK    3  A    between atoms: C3_4  and  O6_26
REMARK    4  A    between atoms: C6_7  and  C8_9
REMARK    5  A    between atoms: C8_9  and  C9_10
REMARK    6  A    between atoms: C12_15  and  C13_16
REMARK    7  A    between atoms: C13_16  and  C14_17
REMARK    8  A    between atoms: C16_19  and  O5_24
REMARK    9  A    between atoms: C17_20  and  O4_23
REMARK   10  A    between atoms: O5_24  and  C20_25
REMARK                            x       y       z     vdW  Elec       q    Type
REMARK                         _______ _______ _______ _____ _____    ______ ____
ROOT
ATOM      1  C9  UNL     1      30.441  33.308  65.152  0.00  0.00    +0.045 C 
ATOM      2  C10 UNL     1      29.589  34.510  65.511  0.00  0.00    +0.236 C 
ATOM      3  O2  UNL     1      30.222  35.088  66.652  0.00  0.00    -0.464 OA
ATOM      4  C11 UNL     1      31.539  34.726  66.671  0.00  0.00    +0.311 C 
ATOM      5  O3  UNL     1      32.338  35.126  67.500  0.00  0.00    -0.251 OA
ATOM      6  C12 UNL     1      31.845  33.803  65.515  0.00  0.00    +0.109 C 
ENDROOT
BRANCH   1   7
ATOM      7  C8  UNL     1      30.075  32.059  65.986  0.00  0.00    +0.043 C 
BRANCH   7  12
ATOM      8  C2  UNL     1      26.495  32.221  67.315  0.00  0.00    +0.162 A 
ATOM      9  C3  UNL     1      25.825  31.474  66.336  0.00  0.00    +0.158 A 
ATOM     10  C4  UNL     1      26.513  30.915  65.260  0.00  0.00    +0.049 A 
ATOM     11  C5  UNL     1      27.891  31.101  65.150  0.00  0.00    +0.007 A 
ATOM     12  C6  UNL     1      28.584  31.847  66.112  0.00  0.00    -0.043 A 
ATOM     13  C7  UNL     1      27.877  32.398  67.194  0.00  0.00    +0.053 A 
BRANCH   8  15
ATOM     14  C1  UNL     1      25.917  32.195  69.630  0.00  0.00    +0.277 C 
ATOM     15  O1  UNL     1      25.722  32.725  68.327  0.00  0.00    -0.491 OA
ENDBRANCH   8  15
BRANCH   9  16
ATOM     16  O6  UNL     1      24.471  31.295  66.443  0.00  0.00    -0.503 OA
ATOM     17  H22 UNL     1      24.059  31.456  65.581  0.00  0.00    +0.292 HD
ENDBRANCH   9  16
ENDBRANCH   7  12
ENDBRANCH   1   7
BRANCH   6  18
ATOM     18  C13 UNL     1      32.509  34.598  64.381  0.00  0.00    +0.050 C 
BRANCH  18  19
ATOM     19  C14 UNL     1      33.999  34.755  64.590  0.00  0.00    -0.043 A 
ATOM     20  C15 UNL     1      34.841  33.631  64.584  0.00  0.00    +0.053 A 
ATOM     21  C16 UNL     1      36.223  33.767  64.753  0.00  0.00    +0.162 A 
ATOM     22  C17 UNL     1      36.754  35.047  64.950  0.00  0.00    +0.158 A 
ATOM     23  C18 UNL     1      35.931  36.174  64.959  0.00  0.00    +0.049 A 
ATOM     24  C19 UNL     1      34.557  36.027  64.772  0.00  0.00    +0.007 A 
BRANCH  22  25
ATOM     25  O4  UNL     1      38.105  35.193  65.130  0.00  0.00    -0.503 OA
ATOM     26  H18 UNL     1      38.408  35.971  64.638  0.00  0.00    +0.292 HD
ENDBRANCH  22  25
BRANCH  21  27
ATOM     27  O5  UNL     1      37.116  32.728  64.756  0.00  0.00    -0.491 OA
ATOM     28  C20 UNL     1      37.430  32.146  63.497  0.00  0.00    +0.277 C 
ENDBRANCH  21  27
ENDBRANCH  18  19
ENDBRANCH   6  18
TORSDOF 8
ENDMDL
MODEL 3
REMARK VINA RESULT:    -8.587      2.689      6.785
REMARK INTER + INTRA:         -12.750
REMARK INTER:                 -11.844
REMARK INTRA:                  -0.905
REMARK UNBOUND:                -0.649
REMARK  Name = data/mahkota_dewa_dn/results/docking/ligands/pdb/Matairesinol.pdb
REMARK  10 active torsions:
REMARK  status: ('A' for Active; 'I' for Inactive)
REMARK    1  A    between atoms: C1_1  and  O1_2
REMARK    2  A    between atoms: O1_2  and  C2_3
REMARK    3  A    between atoms: C3_4  and  O6_26
REMARK    4  A    between atoms: C6_7  and  C8_9
REMARK    5  A    between atoms: C8_9  and  C9_10
REMARK    6  A    between atoms: C12_15  and  C13_16
REMARK    7  A    between atoms: C13_16  and  C14_17
REMARK    8  A    between atoms: C16_19  and  O5_24
REMARK    9  A    between atoms: C17_20  and  O4_23
REMARK   10  A    between atoms: O5_24  and  C20_25
REMARK                            x       y       z     vdW  Elec       q    Type
REMARK                         _______ _______ _______ _____ _____    ______ ____
ROOT
ATOM      1  C9  UNL     1      30.694  33.895  66.681  0.00  0.00    +0.045 C 
ATOM      2  C10 UNL     1      30.292  34.874  67.767  0.00  0.00    +0.236 C 
ATOM      3  O2  UNL     1      31.351  34.829  68.721  0.00  0.00    -0.464 OA
ATOM      4  C11 UNL     1      32.492  34.393  68.110  0.00  0.00    +0.311 C 
ATOM      5  O3  UNL     1      33.573  34.315  68.670  0.00  0.00    -0.251 OA
ATOM      6  C12 UNL     1      32.218  34.063  66.662  0.00  0.00    +0.109 C 
ENDROOT
BRANCH   1   7
ATOM      7  C8  UNL     1      30.314  32.439  67.031  0.00  0.00    +0.043 C 
BRANCH   7  12
ATOM      8  C2  UNL     1      26.509  32.205  67.312  0.00  0.00    +0.162 A 
ATOM      9  C3  UNL     1      26.206  31.526  66.125  0.00  0.00    +0.158 A 
ATOM     10  C4  UNL     1      27.212  31.137  65.240  0.00  0.00    +0.049 A 
ATOM     11  C5  UNL     1      28.543  31.429  65.538  0.00  0.00    +0.007 A 
ATOM     12  C6  UNL     1      28.872  32.111  66.715  0.00  0.00    -0.043 A 
ATOM     13  C7  UNL     1      27.848  32.490  67.600  0.00  0.00    +0.053 A 
BRANCH   8  15
ATOM     14  C1  UNL     1      25.445  32.062  69.444  0.00  0.00    +0.277 C 
ATOM     15  O1  UNL     1      25.444  32.540  68.107  0.00  0.00    -0.491 OA
ENDBRANCH   8  15
BRANCH   9  16
ATOM     16  O6  UNL     1      24.899  31.241  65.832  0.00  0.00    -0.503 OA
ATOM     17  H22 UNL     1      24.586  30.537  66.419  0.00  0.00    +0.292 HD
ENDBRANCH   9  16
ENDBRANCH   7  12
ENDBRANCH   1   7
BRANCH   6  18
ATOM     18  C13 UNL     1      32.679  35.225  65.770  0.00  0.00    +0.050 C 
BRANCH  18  19
ATOM     19  C14 UNL     1      32.737  34.836  64.309  0.00  0.00    -0.043 A 
ATOM     20  C15 UNL     1      32.509  35.793  63.307  0.00  0.00    +0.053 A 
ATOM     21  C16 UNL     1      32.583  35.448  61.953  0.00  0.00    +0.162 A 
ATOM     22  C17 UNL     1      32.869  34.122  61.611  0.00  0.00    +0.158 A 
ATOM     23  C18 UNL     1      33.098  33.159  62.594  0.00  0.00    +0.049 A 
ATOM     24  C19 UNL     1      33.037  33.518  63.941  0.00  0.00    +0.007 A 
BRANCH  22  25
ATOM     25  O4  UNL     1      32.931  33.769  60.288  0.00  0.00    -0.503 OA
ATOM     26  H18 UNL     1      32.149  34.112  59.831  0.00  0.00    +0.292 HD
ENDBRANCH  22  25
BRANCH  21  27
ATOM     27  O5  UNL     1      32.380  36.318  60.914  0.00  0.00    -0.491 OA
ATOM     28  C20 UNL     1      31.748  37.553  61.222  0.00  0.00    +0.277 C 
ENDBRANCH  21  27
ENDBRANCH  18  19
ENDBRANCH   6  18
TORSDOF 8
ENDMDL
MODEL 4
REMARK VINA RESULT:    -8.577      3.305      7.389
REMARK INTER + INTRA:         -12.736
REMARK INTER:                 -11.844
REMARK INTRA:                  -0.891
REMARK UNBOUND:                -0.649
REMARK  Name = data/mahkota_dewa_dn/results/docking/ligands/pdb/Matairesinol.pdb
REMARK  10 active torsions:
REMARK  status: ('A' for Active; 'I' for Inactive)
REMARK    1  A    between atoms: C1_1  and  O1_2
REMARK    2  A    between atoms: O1_2  and  C2_3
REMARK    3  A    between atoms: C3_4  and  O6_26
REMARK    4  A    between atoms: C6_7  and  C8_9
REMARK    5  A    between atoms: C8_9  and  C9_10
REMARK    6  A    between atoms: C12_15  and  C13_16
REMARK    7  A    between atoms: C13_16  and  C14_17
REMARK    8  A    between atoms: C16_19  and  O5_24
REMARK    9  A    between atoms: C17_20  and  O4_23
REMARK   10  A    between atoms: O5_24  and  C20_25
REMARK                            x       y       z     vdW  Elec       q    Type
REMARK                         _______ _______ _______ _____ _____    ______ ____
ROOT
ATOM      1  C9  UNL     1      30.703  34.097  66.613  0.00  0.00    +0.045 C 
ATOM      2  C10 UNL     1      30.589  35.075  67.766  0.00  0.00    +0.236 C 
ATOM      3  O2  UNL     1      31.846  35.010  68.437  0.00  0.00    -0.464 OA
ATOM      4  C11 UNL     1      32.800  34.561  67.568  0.00  0.00    +0.311 C 
ATOM      5  O3  UNL     1      33.982  34.464  67.851  0.00  0.00    -0.251 OA
ATOM      6  C12 UNL     1      32.180  34.242  66.228  0.00  0.00    +0.109 C 
ENDROOT
BRANCH   1   7
ATOM      7  C8  UNL     1      30.396  32.644  67.042  0.00  0.00    +0.043 C 
BRANCH   7  12
ATOM      8  C2  UNL     1      26.606  32.248  67.332  0.00  0.00    +0.162 A 
ATOM      9  C3  UNL     1      26.341  31.476  66.193  0.00  0.00    +0.158 A 
ATOM     10  C4  UNL     1      27.369  31.077  65.339  0.00  0.00    +0.049 A 
ATOM     11  C5  UNL     1      28.683  31.451  65.618  0.00  0.00    +0.007 A 
ATOM     12  C6  UNL     1      28.974  32.227  66.747  0.00  0.00    -0.043 A 
ATOM     13  C7  UNL     1      27.928  32.616  67.602  0.00  0.00    +0.053 A 
BRANCH   8  15
ATOM     14  C1  UNL     1      25.405  31.974  69.376  0.00  0.00    +0.277 C 
ATOM     15  O1  UNL     1      25.522  32.586  68.100  0.00  0.00    -0.491 OA
ENDBRANCH   8  15
BRANCH   9  16
ATOM     16  O6  UNL     1      25.050  31.111  65.918  0.00  0.00    -0.503 OA
ATOM     17  H22 UNL     1      25.052  30.269  65.438  0.00  0.00    +0.292 HD
ENDBRANCH   9  16
ENDBRANCH   7  12
ENDBRANCH   1   7
BRANCH   6  18
ATOM     18  C13 UNL     1      32.430  35.402  65.253  0.00  0.00    +0.050 C 
BRANCH  18  19
ATOM     19  C14 UNL     1      33.698  35.210  64.451  0.00  0.00    -0.043 A 
ATOM     20  C15 UNL     1      34.142  33.919  64.119  0.00  0.00    +0.053 A 
ATOM     21  C16 UNL     1      35.301  33.731  63.357  0.00  0.00    +0.162 A 
ATOM     22  C17 UNL     1      36.027  34.855  62.947  0.00  0.00    +0.158 A 
ATOM     23  C18 UNL     1      35.599  36.144  63.269  0.00  0.00    +0.049 A 
ATOM     24  C19 UNL     1      34.434  36.319  64.015  0.00  0.00    +0.007 A 
BRANCH  22  25
ATOM     25  O4  UNL     1      37.170  34.684  62.212  0.00  0.00    -0.503 OA
ATOM     26  H18 UNL     1      37.121  33.838  61.742  0.00  0.00    +0.292 HD
ENDBRANCH  22  25
BRANCH  21  27
ATOM     27  O5  UNL     1      35.801  32.511  62.984  0.00  0.00    -0.491 OA
ATOM     28  C20 UNL     1      35.109  31.820  61.953  0.00  0.00    +0.277 C 
ENDBRANCH  21  27
ENDBRANCH  18  19
ENDBRANCH   6  18
TORSDOF 8
ENDMDL
MODEL 5
REMARK VINA RESULT:    -8.405      3.144      7.289
REMARK INTER + INTRA:         -12.493
REMARK INTER:                 -11.870
REMARK INTRA:                  -0.623
REMARK UNBOUND:                -0.649
REMARK  Name = data/mahkota_dewa_dn/results/docking/ligands/pdb/Matairesinol.pdb
REMARK  10 active torsions:
REMARK  status: ('A' for Active; 'I' for Inactive)
REMARK    1  A    between atoms: C1_1  and  O1_2
REMARK    2  A    between atoms: O1_2  and  C2_3
REMARK    3  A    between atoms: C3_4  and  O6_26
REMARK    4  A    between atoms: C6_7  and  C8_9
REMARK    5  A    between atoms: C8_9  and  C9_10
REMARK    6  A    between atoms: C12_15  and  C13_16
REMARK    7  A    between atoms: C13_16  and  C14_17
REMARK    8  A    between atoms: C16_19  and  O5_24
REMARK    9  A    between atoms: C17_20  and  O4_23
REMARK   10  A    between atoms: O5_24  and  C20_25
REMARK                            x       y       z     vdW  Elec       q    Type
REMARK                         _______ _______ _______ _____ _____    ______ ____
ROOT
ATOM      1  C9  UNL     1      30.079  33.024  65.272  0.00  0.00    +0.045 C 
ATOM      2  C10 UNL     1      29.217  34.261  65.426  0.00  0.00    +0.236 C 
ATOM      3  O2  UNL     1      29.787  34.980  66.519  0.00  0.00    -0.464 OA
ATOM      4  C11 UNL     1      31.098  34.624  66.660  0.00  0.00    +0.311 C 
ATOM      5  O3  UNL     1      31.852  35.126  67.476  0.00  0.00    -0.251 OA
ATOM      6  C12 UNL     1      31.463  33.561  65.650  0.00  0.00    +0.109 C 
ENDROOT
BRANCH   1   7
ATOM      7  C8  UNL     1      29.657  31.891  66.235  0.00  0.00    +0.043 C 
BRANCH   7  12
ATOM      8  C2  UNL     1      26.156  32.312  67.710  0.00  0.00    +0.162 A 
ATOM      9  C3  UNL     1      25.390  31.641  66.747  0.00  0.00    +0.158 A 
ATOM     10  C4  UNL     1      25.988  31.050  65.635  0.00  0.00    +0.049 A 
ATOM     11  C5  UNL     1      27.372  31.127  65.473  0.00  0.00    +0.007 A 
ATOM     12  C6  UNL     1      28.159  31.796  66.418  0.00  0.00    -0.043 A 
ATOM     13  C7  UNL     1      27.542  32.381  67.537  0.00  0.00    +0.053 A 
BRANCH   8  15
ATOM     14  C1  UNL     1      26.207  33.223  69.915  0.00  0.00    +0.277 C 
ATOM     15  O1  UNL     1      25.466  32.856  68.761  0.00  0.00    -0.491 OA
ENDBRANCH   8  15
BRANCH   9  16
ATOM     16  O6  UNL     1      24.032  31.568  66.906  0.00  0.00    -0.503 OA
ATOM     17  H22 UNL     1      23.719  30.708  66.586  0.00  0.00    +0.292 HD
ENDBRANCH   9  16
ENDBRANCH   7  12
ENDBRANCH   1   7
BRANCH   6  18
ATOM     18  C13 UNL     1      32.197  34.205  64.464  0.00  0.00    +0.050 C 
BRANCH  18  19
ATOM     19  C14 UNL     1      33.654  34.473  64.772  0.00  0.00    -0.043 A 
ATOM     20  C15 UNL     1      34.104  35.783  65.002  0.00  0.00    +0.053 A 
ATOM     21  C16 UNL     1      35.445  36.039  65.310  0.00  0.00    +0.162 A 
ATOM     22  C17 UNL     1      36.340  34.964  65.365  0.00  0.00    +0.158 A 
ATOM     23  C18 UNL     1      35.909  33.657  65.139  0.00  0.00    +0.049 A 
ATOM     24  C19 UNL     1      34.566  33.413  64.849  0.00  0.00    +0.007 A 
BRANCH  22  25
ATOM     25  O4  UNL     1      37.658  35.204  65.653  0.00  0.00    -0.503 OA
ATOM     26  H18 UNL     1      37.732  36.046  66.126  0.00  0.00    +0.292 HD
ENDBRANCH  22  25
BRANCH  21  27
ATOM     27  O5  UNL     1      35.967  37.283  65.554  0.00  0.00    -0.491 OA
ATOM     28  C20 UNL     1      35.272  38.101  66.486  0.00  0.00    +0.277 C 
ENDBRANCH  21  27
ENDBRANCH  18  19
ENDBRANCH   6  18
TORSDOF 8
ENDMDL
MODEL 6
REMARK VINA RESULT:    -8.356      3.272      6.923
REMARK INTER + INTRA:         -12.424
REMARK INTER:                 -11.563
REMARK INTRA:                  -0.860
REMARK UNBOUND:                -0.649
REMARK  Name = data/mahkota_dewa_dn/results/docking/ligands/pdb/Matairesinol.pdb
REMARK  10 active torsions:
REMARK  status: ('A' for Active; 'I' for Inactive)
REMARK    1  A    between atoms: C1_1  and  O1_2
REMARK    2  A    between atoms: O1_2  and  C2_3
REMARK    3  A    between atoms: C3_4  and  O6_26
REMARK    4  A    between atoms: C6_7  and  C8_9
REMARK    5  A    between atoms: C8_9  and  C9_10
REMARK    6  A    between atoms: C12_15  and  C13_16
REMARK    7  A    between atoms: C13_16  and  C14_17
REMARK    8  A    between atoms: C16_19  and  O5_24
REMARK    9  A    between atoms: C17_20  and  O4_23
REMARK   10  A    between atoms: O5_24  and  C20_25
REMARK                            x       y       z     vdW  Elec       q    Type
REMARK                         _______ _______ _______ _____ _____    ______ ____
ROOT
ATOM      1  C9  UNL     1      30.723  34.092  66.687  0.00  0.00    +0.045 C 
ATOM      2  C10 UNL     1      30.608  35.018  67.883  0.00  0.00    +0.236 C 
ATOM      3  O2  UNL     1      31.863  34.917  68.555  0.00  0.00    -0.464 OA
ATOM      4  C11 UNL     1      32.818  34.503  67.671  0.00  0.00    +0.311 C 
ATOM      5  O3  UNL     1      33.998  34.389  67.954  0.00  0.00    -0.251 OA
ATOM      6  C12 UNL     1      32.202  34.248  66.315  0.00  0.00    +0.109 C 
ENDROOT
BRANCH   1   7
ATOM      7  C8  UNL     1      30.408  32.623  67.050  0.00  0.00    +0.043 C 
BRANCH   7  12
ATOM      8  C2  UNL     1      27.328  31.055  65.419  0.00  0.00    +0.162 A 
ATOM      9  C3  UNL     1      26.321  31.514  66.279  0.00  0.00    +0.158 A 
ATOM     10  C4  UNL     1      26.622  32.326  67.372  0.00  0.00    +0.049 A 
ATOM     11  C5  UNL     1      27.947  32.689  67.618  0.00  0.00    +0.007 A 
ATOM     12  C6  UNL     1      28.972  32.240  66.776  0.00  0.00    -0.043 A 
ATOM     13  C7  UNL     1      28.651  31.427  65.675  0.00  0.00    +0.053 A 
BRANCH   8  15
ATOM     14  C1  UNL     1      27.867  29.357  63.831  0.00  0.00    +0.277 C 
ATOM     15  O1  UNL     1      26.920  30.263  64.378  0.00  0.00    -0.491 OA
ENDBRANCH   8  15
BRANCH   9  16
ATOM     16  O6  UNL     1      25.021  31.155  66.039  0.00  0.00    -0.503 OA
ATOM     17  H22 UNL     1      24.963  30.733  65.169  0.00  0.00    +0.292 HD
ENDBRANCH   9  16
ENDBRANCH   7  12
ENDBRANCH   1   7
BRANCH   6  18
ATOM     18  C13 UNL     1      32.461  35.449  65.395  0.00  0.00    +0.050 C 
BRANCH  18  19
ATOM     19  C14 UNL     1      33.695  35.257  64.540  0.00  0.00    -0.043 A 
ATOM     20  C15 UNL     1      34.106  33.969  64.162  0.00  0.00    +0.053 A 
ATOM     21  C16 UNL     1      35.232  33.782  63.352  0.00  0.00    +0.162 A 
ATOM     22  C17 UNL     1      35.959  34.905  62.940  0.00  0.00    +0.158 A 
ATOM     23  C18 UNL     1      35.564  36.191  63.308  0.00  0.00    +0.049 A 
ATOM     24  C19 UNL     1      34.430  36.366  64.101  0.00  0.00    +0.007 A 
BRANCH  22  25
ATOM     25  O4  UNL     1      37.071  34.734  62.158  0.00  0.00    -0.503 OA
ATOM     26  H18 UNL     1      36.793  34.543  61.249  0.00  0.00    +0.292 HD
ENDBRANCH  22  25
BRANCH  21  27
ATOM     27  O5  UNL     1      35.699  32.564  62.933  0.00  0.00    -0.491 OA
ATOM     28  C20 UNL     1      35.563  31.476  63.838  0.00  0.00    +0.277 C 
ENDBRANCH  21  27
ENDBRANCH  18  19
ENDBRANCH   6  18
TORSDOF 8
ENDMDL
MODEL 7
REMARK VINA RESULT:    -8.314      3.298      6.956
REMARK INTER + INTRA:         -12.365
REMARK INTER:                 -11.432
REMARK INTRA:                  -0.933
REMARK UNBOUND:                -0.649
REMARK  Name = data/mahkota_dewa_dn/results/docking/ligands/pdb/Matairesinol.pdb
REMARK  10 active torsions:
REMARK  status: ('A' for Active; 'I' for Inactive)
REMARK    1  A    between atoms: C1_1  and  O1_2
REMARK    2  A    between atoms: O1_2  and  C2_3
REMARK    3  A    between atoms: C3_4  and  O6_26
REMARK    4  A    between atoms: C6_7  and  C8_9
REMARK    5  A    between atoms: C8_9  and  C9_10
REMARK    6  A    between atoms: C12_15  and  C13_16
REMARK    7  A    between atoms: C13_16  and  C14_17
REMARK    8  A    between atoms: C16_19  and  O5_24
REMARK    9  A    between atoms: C17_20  and  O4_23
REMARK   10  A    between atoms: O5_24  and  C20_25
REMARK                            x       y       z     vdW  Elec       q    Type
REMARK                         _______ _______ _______ _____ _____    ______ ____
ROOT
ATOM      1  C9  UNL     1      31.849  33.653  65.845  0.00  0.00    +0.045 C 
ATOM      2  C10 UNL     1      31.615  34.423  67.130  0.00  0.00    +0.236 C 
ATOM      3  O2  UNL     1      30.347  35.054  66.962  0.00  0.00    -0.464 OA
ATOM      4  C11 UNL     1      29.617  34.363  66.037  0.00  0.00    +0.311 C 
ATOM      5  O3  UNL     1      28.468  34.640  65.737  0.00  0.00    -0.251 OA
ATOM      6  C12 UNL     1      30.426  33.214  65.483  0.00  0.00    +0.109 C 
ENDROOT
BRANCH   1   7
ATOM      7  C8  UNL     1      32.442  34.542  64.728  0.00  0.00    +0.043 C 
BRANCH   7  12
ATOM      8  C2  UNL     1      36.198  33.865  64.938  0.00  0.00    +0.162 A 
ATOM      9  C3  UNL     1      36.683  35.168  65.121  0.00  0.00    +0.158 A 
ATOM     10  C4  UNL     1      35.815  36.257  65.185  0.00  0.00    +0.049 A 
ATOM     11  C5  UNL     1      34.440  36.052  65.062  0.00  0.00    +0.007 A 
ATOM     12  C6  UNL     1      33.930  34.761  64.873  0.00  0.00    -0.043 A 
ATOM     13  C7  UNL     1      34.818  33.673  64.818  0.00  0.00    +0.053 A 
BRANCH   8  15
ATOM     14  C1  UNL     1      36.887  31.769  64.029  0.00  0.00    +0.277 C 
ATOM     15  O1  UNL     1      37.139  32.871  64.889  0.00  0.00    -0.491 OA
ENDBRANCH   8  15
BRANCH   9  16
ATOM     16  O6  UNL     1      38.033  35.368  65.238  0.00  0.00    -0.503 OA
ATOM     17  H22 UNL     1      38.475  35.036  64.443  0.00  0.00    +0.292 HD
ENDBRANCH   9  16
ENDBRANCH   7  12
ENDBRANCH   1   7
BRANCH   6  18
ATOM     18  C13 UNL     1      30.011  31.908  66.176  0.00  0.00    +0.050 C 
BRANCH  18  19
ATOM     19  C14 UNL     1      29.078  31.079  65.321  0.00  0.00    -0.043 A 
ATOM     20  C15 UNL     1      29.592  30.176  64.375  0.00  0.00    +0.053 A 
ATOM     21  C16 UNL     1      28.738  29.388  63.596  0.00  0.00    +0.162 A 
ATOM     22  C17 UNL     1      27.355  29.530  63.759  0.00  0.00    +0.158 A 
ATOM     23  C18 UNL     1      26.829  30.422  64.693  0.00  0.00    +0.049 A 
ATOM     24  C19 UNL     1      27.691  31.190  65.477  0.00  0.00    +0.007 A 
BRANCH  22  25
ATOM     25  O4  UNL     1      26.509  28.773  62.992  0.00  0.00    -0.503 OA
ATOM     26  H18 UNL     1      27.019  28.083  62.543  0.00  0.00    +0.292 HD
ENDBRANCH  22  25
BRANCH  21  27
ATOM     27  O5  UNL     1      29.153  28.481  62.656  0.00  0.00    -0.491 OA
ATOM     28  C20 UNL     1      30.420  28.712  62.054  0.00  0.00    +0.277 C 
ENDBRANCH  21  27
ENDBRANCH  18  19
ENDBRANCH   6  18
TORSDOF 8
ENDMDL
MODEL 8
REMARK VINA RESULT:    -8.301      3.275      6.582
REMARK INTER + INTRA:         -12.346
REMARK INTER:                 -11.495
REMARK INTRA:                  -0.851
REMARK UNBOUND:                -0.649
REMARK  Name = data/mahkota_dewa_dn/results/docking/ligands/pdb/Matairesinol.pdb
REMARK  10 active torsions:
REMARK  status: ('A' for Active; 'I' for Inactive)
REMARK    1  A    between atoms: C1_1  and  O1_2
REMARK    2  A    between atoms: O1_2  and  C2_3
REMARK    3  A    between atoms: C3_4  and  O6_26
REMARK    4  A    between atoms: C6_7  and  C8_9
REMARK    5  A    between atoms: C8_9  and  C9_10
REMARK    6  A    between atoms: C12_15  and  C13_16
REMARK    7  A    between atoms: C13_16  and  C14_17
REMARK    8  A    between atoms: C16_19  and  O5_24
REMARK    9  A    between atoms: C17_20  and  O4_23
REMARK   10  A    between atoms: O5_24  and  C20_25
REMARK                            x       y       z     vdW  Elec       q    Type
REMARK                         _______ _______ _______ _____ _____    ______ ____
ROOT
ATOM      1  C9  UNL     1      30.507  33.415  65.250  0.00  0.00    +0.045 C 
ATOM      2  C10 UNL     1      29.466  34.466  65.585  0.00  0.00    +0.236 C 
ATOM      3  O2  UNL     1      29.915  35.059  66.803  0.00  0.00    -0.464 OA
ATOM      4  C11 UNL     1      31.264  34.881  66.923  0.00  0.00    +0.311 C 
ATOM      5  O3  UNL     1      31.928  35.338  67.838  0.00  0.00    -0.251 OA
ATOM      6  C12 UNL     1      31.792  34.076  65.759  0.00  0.00    +0.109 C 
ENDROOT
BRANCH   1   7
ATOM      7  C8  UNL     1      30.254  32.081  65.990  0.00  0.00    +0.043 C 
BRANCH   7  12
ATOM      8  C2  UNL     1      28.785  29.393  63.704  0.00  0.00    +0.162 A 
ATOM      9  C3  UNL     1      27.420  29.531  63.991  0.00  0.00    +0.158 A 
ATOM     10  C4  UNL     1      26.969  30.483  64.905  0.00  0.00    +0.049 A 
ATOM     11  C5  UNL     1      27.888  31.312  65.548  0.00  0.00    +0.007 A 
ATOM     12  C6  UNL     1      29.258  31.191  65.283  0.00  0.00    -0.043 A 
ATOM     13  C7  UNL     1      29.696  30.232  64.354  0.00  0.00    +0.053 A 
BRANCH   8  15
ATOM     14  C1  UNL     1      29.993  27.393  63.219  0.00  0.00    +0.277 C 
ATOM     15  O1  UNL     1      29.117  28.426  62.792  0.00  0.00    -0.491 OA
ENDBRANCH   8  15
BRANCH   9  16
ATOM     16  O6  UNL     1      26.519  28.715  63.361  0.00  0.00    -0.503 OA
ATOM     17  H22 UNL     1      25.947  29.251  62.792  0.00  0.00    +0.292 HD
ENDBRANCH   9  16
ENDBRANCH   7  12
ENDBRANCH   1   7
BRANCH   6  18
ATOM     18  C13 UNL     1      32.427  35.018  64.726  0.00  0.00    +0.050 C 
BRANCH  18  19
ATOM     19  C14 UNL     1      33.935  35.059  64.843  0.00  0.00    -0.043 A 
ATOM     20  C15 UNL     1      34.690  33.879  64.737  0.00  0.00    +0.053 A 
ATOM     21  C16 UNL     1      36.087  33.910  64.821  0.00  0.00    +0.162 A 
ATOM     22  C17 UNL     1      36.722  35.139  65.033  0.00  0.00    +0.158 A 
ATOM     23  C18 UNL     1      35.986  36.319  65.140  0.00  0.00    +0.049 A 
ATOM     24  C19 UNL     1      34.596  36.279  65.038  0.00  0.00    +0.007 A 
BRANCH  22  25
ATOM     25  O4  UNL     1      38.088  35.180  65.129  0.00  0.00    -0.503 OA
ATOM     26  H18 UNL     1      38.465  34.462  64.598  0.00  0.00    +0.292 HD
ENDBRANCH  22  25
BRANCH  21  27
ATOM     27  O5  UNL     1      36.899  32.811  64.723  0.00  0.00    -0.491 OA
ATOM     28  C20 UNL     1      36.363  31.670  64.065  0.00  0.00    +0.277 C 
ENDBRANCH  21  27
ENDBRANCH  18  19
ENDBRANCH   6  18
TORSDOF 8
ENDMDL
MODEL 9
REMARK VINA RESULT:    -8.276      2.291      6.549
REMARK INTER + INTRA:         -12.311
REMARK INTER:                 -10.855
REMARK INTRA:                  -1.456
REMARK UNBOUND:                -0.649
REMARK  Name = data/mahkota_dewa_dn/results/docking/ligands/pdb/Matairesinol.pdb
REMARK  10 active torsions:
REMARK  status: ('A' for Active; 'I' for Inactive)
REMARK    1  A    between atoms: C1_1  and  O1_2
REMARK    2  A    between atoms: O1_2  and  C2_3
REMARK    3  A    between atoms: C3_4  and  O6_26
REMARK    4  A    between atoms: C6_7  and  C8_9
REMARK    5  A    between atoms: C8_9  and  C9_10
REMARK    6  A    between atoms: C12_15  and  C13_16
REMARK    7  A    between atoms: C13_16  and  C14_17
REMARK    8  A    between atoms: C16_19  and  O5_24
REMARK    9  A    between atoms: C17_20  and  O4_23
REMARK   10  A    between atoms: O5_24  and  C20_25
REMARK                            x       y       z     vdW  Elec       q    Type
REMARK                         _______ _______ _______ _____ _____    ______ ____
ROOT
ATOM      1  C9  UNL     1      31.216  31.149  63.557  0.00  0.00    +0.045 C 
ATOM      2  C10 UNL     1      32.094  32.174  62.867  0.00  0.00    +0.236 C 
ATOM      3  O2  UNL     1      33.421  31.886  63.306  0.00  0.00    -0.464 OA
ATOM      4  C11 UNL     1      33.492  30.581  63.705  0.00  0.00    +0.311 C 
ATOM      5  O3  UNL     1      34.521  30.041  64.071  0.00  0.00    -0.251 OA
ATOM      6  C12 UNL     1      32.137  29.924  63.591  0.00  0.00    +0.109 C 
ENDROOT
BRANCH   1   7
ATOM      7  C8  UNL     1      30.831  31.577  64.992  0.00  0.00    +0.043 C 
BRANCH   7  12
ATOM      8  C2  UNL     1      27.372  31.999  66.562  0.00  0.00    +0.162 A 
ATOM      9  C3  UNL     1      26.644  31.046  65.837  0.00  0.00    +0.158 A 
ATOM     10  C4  UNL     1      27.255  30.266  64.856  0.00  0.00    +0.049 A 
ATOM     11  C5  UNL     1      28.613  30.435  64.587  0.00  0.00    +0.007 A 
ATOM     12  C6  UNL     1      29.363  31.385  65.293  0.00  0.00    -0.043 A 
ATOM     13  C7  UNL     1      28.734  32.158  66.284  0.00  0.00    +0.053 A 
BRANCH   8  15
ATOM     14  C1  UNL     1      27.229  32.806  68.804  0.00  0.00    +0.277 C 
ATOM     15  O1  UNL     1      26.672  32.711  67.501  0.00  0.00    -0.491 OA
ENDBRANCH   8  15
BRANCH   9  16
ATOM     16  O6  UNL     1      25.310  30.883  66.100  0.00  0.00    -0.503 OA
ATOM     17  H22 UNL     1      24.929  31.735  66.361  0.00  0.00    +0.292 HD
ENDBRANCH   9  16
ENDBRANCH   7  12
ENDBRANCH   1   7
BRANCH   6  18
ATOM     18  C13 UNL     1      32.071  29.094  62.300  0.00  0.00    +0.050 C 
BRANCH  18  19
ATOM     19  C14 UNL     1      31.044  27.986  62.386  0.00  0.00    -0.043 A 
ATOM     20  C15 UNL     1      29.790  28.127  61.768  0.00  0.00    +0.053 A 
ATOM     21  C16 UNL     1      28.843  27.100  61.822  0.00  0.00    +0.162 A 
ATOM     22  C17 UNL     1      29.157  25.929  62.523  0.00  0.00    +0.158 A 
ATOM     23  C18 UNL     1      30.398  25.774  63.142  0.00  0.00    +0.049 A 
ATOM     24  C19 UNL     1      31.341  26.799  63.068  0.00  0.00    +0.007 A 
BRANCH  22  25
ATOM     25  O4  UNL     1      28.233  24.921  62.593  0.00  0.00    -0.503 OA
ATOM     26  H18 UNL     1      28.248  24.418  61.765  0.00  0.00    +0.292 HD
ENDBRANCH  22  25
BRANCH  21  27
ATOM     27  O5  UNL     1      27.601  27.151  61.245  0.00  0.00    -0.491 OA
ATOM     28  C20 UNL     1      26.639  27.996  61.862  0.00  0.00    +0.277 C 
ENDBRANCH  21  27
ENDBRANCH  18  19
ENDBRANCH   6  18
TORSDOF 8
ENDMDL
