MODEL 1
REMARK VINA RESULT:    -6.650      0.000      0.000
REMARK INTER + INTRA:          -8.160
REMARK INTER:                  -8.011
REMARK INTRA:                  -0.149
REMARK UNBOUND:                -0.149
REMARK  Name = data/mahkota_dewa_dn/results/docking/ligands/pdb/Caffeic_acid.pdb
REMARK  5 active torsions:
REMARK  status: ('A' for Active; 'I' for Inactive)
REMARK    1  A    between atoms: C3_3  and  O4_13
REMARK    2  A    between atoms: C4_4  and  O3_12
REMARK    3  A    between atoms: C6_6  and  C7_7
REMARK    4  A    between atoms: C8_8  and  C9_9
REMARK    5  A    between atoms: C9_9  and  O2_11
REMARK                            x       y       z     vdW  Elec       q    Type
REMARK                         _______ _______ _______ _____ _____    ______ ____
ROOT
ATOM      1  C1  UNL     1      26.976  32.812  69.347  0.00  0.00    +0.012 A 
ATOM      2  C2  UNL     1      25.720  32.216  69.504  0.00  0.00    +0.050 A 
ATOM      3  C3  UNL     1      25.074  31.700  68.389  0.00  0.00    +0.158 A 
ATOM      4  C4  UNL     1      25.670  31.781  67.134  0.00  0.00    +0.159 A 
ATOM      5  C5  UNL     1      26.916  32.372  66.970  0.00  0.00    +0.057 A 
ATOM      6  C6  UNL     1      27.593  32.884  68.085  0.00  0.00    -0.021 A 
ENDROOT
BRANCH   6   7
ATOM      7  C7  UNL     1      28.901  33.546  67.977  0.00  0.00    +0.015 C 
ATOM      8  C8  UNL     1      29.337  34.487  68.829  0.00  0.00    +0.092 C 
BRANCH   8   9
ATOM      9  C9  UNL     1      30.641  35.153  68.707  0.00  0.00    +0.330 C 
ATOM     10  O1  UNL     1      31.684  34.578  68.454  0.00  0.00    -0.246 OA
BRANCH   9  11
ATOM     11  O2  UNL     1      30.599  36.479  68.902  0.00  0.00    -0.478 OA
ATOM     12  H6  UNL     1      31.001  36.594  69.787  0.00  0.00    +0.295 HD
ENDBRANCH   9  11
ENDBRANCH   8   9
ENDBRANCH   6   7
BRANCH   4  13
ATOM     13  O3  UNL     1      25.023  31.280  66.040  0.00  0.00    -0.503 OA
ATOM     14  H7  UNL     1      25.709  31.245  65.344  0.00  0.00    +0.292 HD
ENDBRANCH   4  13
BRANCH   3  15
ATOM     15  O4  UNL     1      23.846  31.105  68.474  0.00  0.00    -0.503 OA
ATOM     16  H8  UNL     1      23.895  30.404  69.145  0.00  0.00    +0.292 HD
ENDBRANCH   3  15
TORSDOF 5
ENDMDL
MODEL 2
REMARK VINA RESULT:    -6.649      1.612      2.652
REMARK INTER + INTRA:          -8.158
REMARK INTER:                  -8.002
REMARK INTRA:                  -0.156
REMARK UNBOUND:                -0.149
REMARK  Name = data/mahkota_dewa_dn/results/docking/ligands/pdb/Caffeic_acid.pdb
REMARK  5 active torsions:
REMARK  status: ('A' for Active; 'I' for Inactive)
REMARK    1  A    between atoms: C3_3  and  O4_13
REMARK    2  A    between atoms: C4_4  and  O3_12
REMARK    3  A    between atoms: C6_6  and  C7_7
REMARK    4  A    between atoms: C8_8  and  C9_9
REMARK    5  A    between atoms: C9_9  and  O2_11
REMARK                            x       y       z     vdW  Elec       q    Type
REMARK                         _______ _______ _______ _____ _____    ______ ____
ROOT
ATOM      1  C1  UNL     1      29.011  32.001  66.122  0.00  0.00    +0.012 A 
ATOM      2  C2  UNL     1      28.506  31.040  65.239  0.00  0.00    +0.050 A 
ATOM      3  C3  UNL     1      27.151  30.740  65.272  0.00  0.00    +0.158 A 
ATOM      4  C4  UNL     1      26.312  31.384  66.177  0.00  0.00    +0.159 A 
ATOM      5  C5  UNL     1      26.806  32.337  67.057  0.00  0.00    +0.057 A 
ATOM      6  C6  UNL     1      28.168  32.668  67.029  0.00  0.00    -0.021 A 
ENDROOT
BRANCH   6   7
ATOM      7  C7  UNL     1      28.760  33.648  67.951  0.00  0.00    +0.015 C 
ATOM      8  C8  UNL     1      29.977  34.190  67.787  0.00  0.00    +0.092 C 
BRANCH   8   9
ATOM      9  C9  UNL     1      30.567  35.159  68.720  0.00  0.00    +0.330 C 
ATOM     10  O1  UNL     1      31.657  35.680  68.569  0.00  0.00    -0.246 OA
BRANCH   9  11
ATOM     11  O2  UNL     1      29.796  35.438  69.781  0.00  0.00    -0.478 OA
ATOM     12  H6  UNL     1      30.427  35.801  70.435  0.00  0.00    +0.295 HD
ENDBRANCH   9  11
ENDBRANCH   8   9
ENDBRANCH   6   7
BRANCH   4  13
ATOM     13  O3  UNL     1      24.982  31.075  66.210  0.00  0.00    -0.503 OA
ATOM     14  H7  UNL     1      24.567  31.712  65.595  0.00  0.00    +0.292 HD
ENDBRANCH   4  13
BRANCH   3  15
ATOM     15  O4  UNL     1      26.594  29.812  64.436  0.00  0.00    -0.503 OA
ATOM     16  H8  UNL     1      27.171  29.719  63.659  0.00  0.00    +0.292 HD
ENDBRANCH   3  15
TORSDOF 5
ENDMDL
MODEL 3
REMARK VINA RESULT:    -6.576      2.846      5.228
REMARK INTER + INTRA:          -8.071
REMARK INTER:                  -7.932
REMARK INTRA:                  -0.138
REMARK UNBOUND:                -0.149
REMARK  Name = data/mahkota_dewa_dn/results/docking/ligands/pdb/Caffeic_acid.pdb
REMARK  5 active torsions:
REMARK  status: ('A' for Active; 'I' for Inactive)
REMARK    1  A    between atoms: C3_3  and  O4_13
REMARK    2  A    between atoms: C4_4  and  O3_12
REMARK    3  A    between atoms: C6_6  and  C7_7
REMARK    4  A    between atoms: C8_8  and  C9_9
REMARK    5  A    between atoms: C9_9  and  O2_11
REMARK                            x       y       z     vdW  Elec       q    Type
REMARK                         _______ _______ _______ _____ _____    ______ ____
ROOT
ATOM      1  C1  UNL     1      27.443  32.420  66.997  0.00  0.00    +0.012 A 
ATOM      2  C2  UNL     1      27.439  33.018  68.263  0.00  0.00    +0.050 A 
ATOM      3  C3  UNL     1      26.362  32.795  69.111  0.00  0.00    +0.158 A 
ATOM      4  C4  UNL     1      25.302  31.991  68.701  0.00  0.00    +0.159 A 
ATOM      5  C5  UNL     1      25.299  31.396  67.447  0.00  0.00    +0.057 A 
ATOM      6  C6  UNL     1      26.383  31.594  66.581  0.00  0.00    -0.021 A 
ENDROOT
BRANCH   6   7
ATOM      7  C7  UNL     1      26.429  31.015  65.231  0.00  0.00    +0.015 C 
ATOM      8  C8  UNL     1      27.384  30.171  64.811  0.00  0.00    +0.092 C 
BRANCH   8   9
ATOM      9  C9  UNL     1      27.430  29.605  63.455  0.00  0.00    +0.330 C 
ATOM     10  O1  UNL     1      28.453  29.271  62.886  0.00  0.00    -0.246 OA
BRANCH   9  11
ATOM     11  O2  UNL     1      26.229  29.480  62.873  0.00  0.00    -0.478 OA
ATOM     12  H6  UNL     1      25.847  30.380  62.939  0.00  0.00    +0.295 HD
ENDBRANCH   9  11
ENDBRANCH   8   9
ENDBRANCH   6   7
BRANCH   4  13
ATOM     13  O3  UNL     1      24.242  31.786  69.538  0.00  0.00    -0.503 OA
ATOM     14  H7  UNL     1      23.858  32.675  69.670  0.00  0.00    +0.292 HD
ENDBRANCH   4  13
BRANCH   3  15
ATOM     15  O4  UNL     1      26.297  33.349  70.359  0.00  0.00    -0.503 OA
ATOM     16  H8  UNL     1      27.163  33.743  70.561  0.00  0.00    +0.292 HD
ENDBRANCH   3  15
TORSDOF 5
ENDMDL
MODEL 4
REMARK VINA RESULT:    -6.489      0.825      1.856
REMARK INTER + INTRA:          -7.965
REMARK INTER:                  -7.837
REMARK INTRA:                  -0.128
REMARK UNBOUND:                -0.149
REMARK  Name = data/mahkota_dewa_dn/results/docking/ligands/pdb/Caffeic_acid.pdb
REMARK  5 active torsions:
REMARK  status: ('A' for Active; 'I' for Inactive)
REMARK    1  A    between atoms: C3_3  and  O4_13
REMARK    2  A    between atoms: C4_4  and  O3_12
REMARK    3  A    between atoms: C6_6  and  C7_7
REMARK    4  A    between atoms: C8_8  and  C9_9
REMARK    5  A    between atoms: C9_9  and  O2_11
REMARK                            x       y       z     vdW  Elec       q    Type
REMARK                         _______ _______ _______ _____ _____    ______ ____
ROOT
ATOM      1  C1  UNL     1      27.263  32.543  66.730  0.00  0.00    +0.012 A 
ATOM      2  C2  UNL     1      26.060  31.829  66.784  0.00  0.00    +0.050 A 
ATOM      3  C3  UNL     1      25.437  31.649  68.012  0.00  0.00    +0.158 A 
ATOM      4  C4  UNL     1      26.008  32.169  69.170  0.00  0.00    +0.159 A 
ATOM      5  C5  UNL     1      27.201  32.878  69.124  0.00  0.00    +0.057 A 
ATOM      6  C6  UNL     1      27.838  33.086  67.893  0.00  0.00    -0.021 A 
ENDROOT
BRANCH   6   7
ATOM      7  C7  UNL     1      29.116  33.803  67.779  0.00  0.00    +0.015 C 
ATOM      8  C8  UNL     1      29.612  34.606  68.733  0.00  0.00    +0.092 C 
BRANCH   8   9
ATOM      9  C9  UNL     1      30.884  35.329  68.607  0.00  0.00    +0.330 C 
ATOM     10  O1  UNL     1      31.932  34.818  68.253  0.00  0.00    -0.246 OA
BRANCH   9  11
ATOM     11  O2  UNL     1      30.808  36.631  68.918  0.00  0.00    -0.478 OA
ATOM     12  H6  UNL     1      31.740  36.885  69.078  0.00  0.00    +0.295 HD
ENDBRANCH   9  11
ENDBRANCH   8   9
ENDBRANCH   6   7
BRANCH   4  13
ATOM     13  O3  UNL     1      25.393  31.978  70.375  0.00  0.00    -0.503 OA
ATOM     14  H7  UNL     1      24.619  31.418  70.170  0.00  0.00    +0.292 HD
ENDBRANCH   4  13
BRANCH   3  15
ATOM     15  O4  UNL     1      24.262  30.962  68.133  0.00  0.00    -0.503 OA
ATOM     16  H8  UNL     1      23.641  31.510  68.643  0.00  0.00    +0.292 HD
ENDBRANCH   3  15
TORSDOF 5
ENDMDL
MODEL 5
REMARK VINA RESULT:    -6.441      2.732      5.234
REMARK INTER + INTRA:          -7.908
REMARK INTER:                  -7.776
REMARK INTRA:                  -0.132
REMARK UNBOUND:                -0.149
REMARK  Name = data/mahkota_dewa_dn/results/docking/ligands/pdb/Caffeic_acid.pdb
REMARK  5 active torsions:
REMARK  status: ('A' for Active; 'I' for Inactive)
REMARK    1  A    between atoms: C3_3  and  O4_13
REMARK    2  A    between atoms: C4_4  and  O3_12
REMARK    3  A    between atoms: C6_6  and  C7_7
REMARK    4  A    between atoms: C8_8  and  C9_9
REMARK    5  A    between atoms: C9_9  and  O2_11
REMARK                            x       y       z     vdW  Elec       q    Type
REMARK                         _______ _______ _______ _____ _____    ______ ____
ROOT
ATOM      1  C1  UNL     1      25.271  31.456  67.705  0.00  0.00    +0.012 A 
ATOM      2  C2  UNL     1      25.254  32.076  68.959  0.00  0.00    +0.050 A 
ATOM      3  C3  UNL     1      26.305  32.911  69.314  0.00  0.00    +0.158 A 
ATOM      4  C4  UNL     1      27.362  33.119  68.433  0.00  0.00    +0.159 A 
ATOM      5  C5  UNL     1      27.387  32.507  67.187  0.00  0.00    +0.057 A 
ATOM      6  C6  UNL     1      26.328  31.674  66.802  0.00  0.00    -0.021 A 
ENDROOT
BRANCH   6   7
ATOM      7  C7  UNL     1      26.306  30.974  65.510  0.00  0.00    +0.015 C 
ATOM      8  C8  UNL     1      27.363  30.330  64.989  0.00  0.00    +0.092 C 
BRANCH   8   9
ATOM      9  C9  UNL     1      27.336  29.643  63.691  0.00  0.00    +0.330 C 
ATOM     10  O1  UNL     1      28.242  28.950  63.263  0.00  0.00    -0.246 OA
BRANCH   9  11
ATOM     11  O2  UNL     1      26.211  29.840  62.989  0.00  0.00    -0.478 OA
ATOM     12  H6  UNL     1      26.461  30.530  62.342  0.00  0.00    +0.295 HD
ENDBRANCH   9  11
ENDBRANCH   8   9
ENDBRANCH   6   7
BRANCH   4  13
ATOM     13  O3  UNL     1      28.398  33.933  68.795  0.00  0.00    -0.503 OA
ATOM     14  H7  UNL     1      29.201  33.416  68.585  0.00  0.00    +0.292 HD
ENDBRANCH   4  13
BRANCH   3  15
ATOM     15  O4  UNL     1      26.348  33.546  70.524  0.00  0.00    -0.503 OA
ATOM     16  H8  UNL     1      26.746  32.939  71.171  0.00  0.00    +0.292 HD
ENDBRANCH   3  15
TORSDOF 5
ENDMDL
MODEL 6
REMARK VINA RESULT:    -6.230      1.678      2.443
REMARK INTER + INTRA:          -7.653
REMARK INTER:                  -7.527
REMARK INTRA:                  -0.126
REMARK UNBOUND:                -0.149
REMARK  Name = data/mahkota_dewa_dn/results/docking/ligands/pdb/Caffeic_acid.pdb
REMARK  5 active torsions:
REMARK  status: ('A' for Active; 'I' for Inactive)
REMARK    1  A    between atoms: C3_3  and  O4_13
REMARK    2  A    between atoms: C4_4  and  O3_12
REMARK    3  A    between atoms: C6_6  and  C7_7
REMARK    4  A    between atoms: C8_8  and  C9_9
REMARK    5  A    between atoms: C9_9  and  O2_11
REMARK                            x       y       z     vdW  Elec       q    Type
REMARK                         _______ _______ _______ _____ _____    ______ ____
ROOT
ATOM      1  C1  UNL     1      26.644  31.948  66.411  0.00  0.00    +0.012 A 
ATOM      2  C2  UNL     1      25.373  31.477  66.761  0.00  0.00    +0.050 A 
ATOM      3  C3  UNL     1      24.977  31.527  68.090  0.00  0.00    +0.158 A 
ATOM      4  C4  UNL     1      25.837  32.035  69.059  0.00  0.00    +0.159 A 
ATOM      5  C5  UNL     1      27.100  32.504  68.721  0.00  0.00    +0.057 A 
ATOM      6  C6  UNL     1      27.514  32.478  67.382  0.00  0.00    -0.021 A 
ENDROOT
BRANCH   6   7
ATOM      7  C7  UNL     1      28.846  32.933  66.961  0.00  0.00    +0.015 C 
ATOM      8  C8  UNL     1      29.101  34.159  66.478  0.00  0.00    +0.092 C 
BRANCH   8   9
ATOM      9  C9  UNL     1      30.433  34.603  66.047  0.00  0.00    +0.330 C 
ATOM     10  O1  UNL     1      30.924  34.349  64.962  0.00  0.00    -0.246 OA
BRANCH   9  11
ATOM     11  O2  UNL     1      31.091  35.329  66.963  0.00  0.00    -0.478 OA
ATOM     12  H6  UNL     1      31.683  34.677  67.392  0.00  0.00    +0.295 HD
ENDBRANCH   9  11
ENDBRANCH   8   9
ENDBRANCH   6   7
BRANCH   4  13
ATOM     13  O3  UNL     1      25.443  32.071  70.366  0.00  0.00    -0.503 OA
ATOM     14  H7  UNL     1      25.295  31.134  70.604  0.00  0.00    +0.292 HD
ENDBRANCH   4  13
BRANCH   3  15
ATOM     15  O4  UNL     1      23.749  31.083  68.497  0.00  0.00    -0.503 OA
ATOM     16  H8  UNL     1      23.643  31.305  69.438  0.00  0.00    +0.292 HD
ENDBRANCH   3  15
TORSDOF 5
ENDMDL
MODEL 7
REMARK VINA RESULT:    -5.952      3.879      6.242
REMARK INTER + INTRA:          -7.319
REMARK INTER:                  -7.190
REMARK INTRA:                  -0.130
REMARK UNBOUND:                -0.149
REMARK  Name = data/mahkota_dewa_dn/results/docking/ligands/pdb/Caffeic_acid.pdb
REMARK  5 active torsions:
REMARK  status: ('A' for Active; 'I' for Inactive)
REMARK    1  A    between atoms: C3_3  and  O4_13
REMARK    2  A    between atoms: C4_4  and  O3_12
REMARK    3  A    between atoms: C6_6  and  C7_7
REMARK    4  A    between atoms: C8_8  and  C9_9
REMARK    5  A    between atoms: C9_9  and  O2_11
REMARK                            x       y       z     vdW  Elec       q    Type
REMARK                         _______ _______ _______ _____ _____    ______ ____
ROOT
ATOM      1  C1  UNL     1      26.085  31.040  65.894  0.00  0.00    +0.012 A 
ATOM      2  C2  UNL     1      26.053  31.951  66.956  0.00  0.00    +0.050 A 
ATOM      3  C3  UNL     1      27.210  32.643  67.286  0.00  0.00    +0.158 A 
ATOM      4  C4  UNL     1      28.384  32.427  66.572  0.00  0.00    +0.159 A 
ATOM      5  C5  UNL     1      28.424  31.525  65.517  0.00  0.00    +0.057 A 
ATOM      6  C6  UNL     1      27.264  30.828  65.155  0.00  0.00    -0.021 A 
ENDROOT
BRANCH   6   7
ATOM      7  C7  UNL     1      27.245  29.839  64.068  0.00  0.00    +0.015 C 
ATOM      8  C8  UNL     1      28.306  29.097  63.712  0.00  0.00    +0.092 C 
BRANCH   8   9
ATOM      9  C9  UNL     1      28.283  28.120  62.616  0.00  0.00    +0.330 C 
ATOM     10  O1  UNL     1      29.136  28.039  61.750  0.00  0.00    -0.246 OA
BRANCH   9  11
ATOM     11  O2  UNL     1      27.223  27.298  62.637  0.00  0.00    -0.478 OA
ATOM     12  H6  UNL     1      26.627  27.674  61.957  0.00  0.00    +0.295 HD
ENDBRANCH   9  11
ENDBRANCH   8   9
ENDBRANCH   6   7
BRANCH   4  13
ATOM     13  O3  UNL     1      29.521  33.105  66.910  0.00  0.00    -0.503 OA
ATOM     14  H7  UNL     1      29.979  33.255  66.060  0.00  0.00    +0.292 HD
ENDBRANCH   4  13
BRANCH   3  15
ATOM     15  O4  UNL     1      27.245  33.546  68.313  0.00  0.00    -0.503 OA
ATOM     16  H8  UNL     1      26.329  33.765  68.555  0.00  0.00    +0.292 HD
ENDBRANCH   3  15
TORSDOF 5
ENDMDL
MODEL 8
REMARK VINA RESULT:    -5.900      8.551      9.584
REMARK INTER + INTRA:          -7.257
REMARK INTER:                  -7.106
REMARK INTRA:                  -0.150
REMARK UNBOUND:                -0.149
REMARK  Name = data/mahkota_dewa_dn/results/docking/ligands/pdb/Caffeic_acid.pdb
REMARK  5 active torsions:
REMARK  status: ('A' for Active; 'I' for Inactive)
REMARK    1  A    between atoms: C3_3  and  O4_13
REMARK    2  A    between atoms: C4_4  and  O3_12
REMARK    3  A    between atoms: C6_6  and  C7_7
REMARK    4  A    between atoms: C8_8  and  C9_9
REMARK    5  A    between atoms: C9_9  and  O2_11
REMARK                            x       y       z     vdW  Elec       q    Type
REMARK                         _______ _______ _______ _____ _____    ______ ____
ROOT
ATOM      1  C1  UNL     1      34.237  35.095  64.144  0.00  0.00    +0.012 A 
ATOM      2  C2  UNL     1      34.823  34.297  65.132  0.00  0.00    +0.050 A 
ATOM      3  C3  UNL     1      35.315  34.899  66.282  0.00  0.00    +0.158 A 
ATOM      4  C4  UNL     1      35.228  36.278  66.443  0.00  0.00    +0.159 A 
ATOM      5  C5  UNL     1      34.649  37.078  65.467  0.00  0.00    +0.057 A 
ATOM      6  C6  UNL     1      34.131  36.489  64.305  0.00  0.00    -0.021 A 
ENDROOT
BRANCH   6   7
ATOM      7  C7  UNL     1      33.530  37.280  63.222  0.00  0.00    +0.015 C 
ATOM      8  C8  UNL     1      32.557  36.826  62.415  0.00  0.00    +0.092 C 
BRANCH   8   9
ATOM      9  C9  UNL     1      31.969  37.618  61.326  0.00  0.00    +0.330 C 
ATOM     10  O1  UNL     1      31.434  37.141  60.341  0.00  0.00    -0.246 OA
BRANCH   9  11
ATOM     11  O2  UNL     1      32.067  38.944  61.499  0.00  0.00    -0.478 OA
ATOM     12  H6  UNL     1      31.514  39.312  60.779  0.00  0.00    +0.295 HD
ENDBRANCH   9  11
ENDBRANCH   8   9
ENDBRANCH   6   7
BRANCH   4  13
ATOM     13  O3  UNL     1      35.724  36.864  67.573  0.00  0.00    -0.503 OA
ATOM     14  H7  UNL     1      35.294  36.383  68.308  0.00  0.00    +0.292 HD
ENDBRANCH   4  13
BRANCH   3  15
ATOM     15  O4  UNL     1      35.899  34.175  67.285  0.00  0.00    -0.503 OA
ATOM     16  H8  UNL     1      35.311  33.434  67.506  0.00  0.00    +0.292 HD
ENDBRANCH   3  15
TORSDOF 5
ENDMDL
MODEL 9
REMARK VINA RESULT:    -5.850      2.514      3.285
REMARK INTER + INTRA:          -7.196
REMARK INTER:                  -7.043
REMARK INTRA:                  -0.153
REMARK UNBOUND:                -0.149
REMARK  Name = data/mahkota_dewa_dn/results/docking/ligands/pdb/Caffeic_acid.pdb
REMARK  5 active torsions:
REMARK  status: ('A' for Active; 'I' for Inactive)
REMARK    1  A    between atoms: C3_3  and  O4_13
REMARK    2  A    between atoms: C4_4  and  O3_12
REMARK    3  A    between atoms: C6_6  and  C7_7
REMARK    4  A    between atoms: C8_8  and  C9_9
REMARK    5  A    between atoms: C9_9  and  O2_11
REMARK                            x       y       z     vdW  Elec       q    Type
REMARK                         _______ _______ _______ _____ _____    ______ ____
ROOT
ATOM      1  C1  UNL     1      27.723  32.146  66.570  0.00  0.00    +0.012 A 
ATOM      2  C2  UNL     1      26.895  31.249  65.886  0.00  0.00    +0.050 A 
ATOM      3  C3  UNL     1      27.454  30.405  64.936  0.00  0.00    +0.158 A 
ATOM      4  C4  UNL     1      28.818  30.458  64.667  0.00  0.00    +0.159 A 
ATOM      5  C5  UNL     1      29.647  31.346  65.341  0.00  0.00    +0.057 A 
ATOM      6  C6  UNL     1      29.106  32.196  66.316  0.00  0.00    -0.021 A 
ENDROOT
BRANCH   6   7
ATOM      7  C7  UNL     1      29.921  33.177  67.045  0.00  0.00    +0.015 C 
ATOM      8  C8  UNL     1      29.454  33.947  68.041  0.00  0.00    +0.092 C 
BRANCH   8   9
ATOM      9  C9  UNL     1      30.272  34.934  68.758  0.00  0.00    +0.330 C 
ATOM     10  O1  UNL     1      31.387  35.282  68.413  0.00  0.00    -0.246 OA
BRANCH   9  11
ATOM     11  O2  UNL     1      29.685  35.441  69.852  0.00  0.00    -0.478 OA
ATOM     12  H6  UNL     1      29.960  36.381  69.846  0.00  0.00    +0.295 HD
ENDBRANCH   9  11
ENDBRANCH   8   9
ENDBRANCH   6   7
BRANCH   4  13
ATOM     13  O3  UNL     1      29.358  29.632  63.723  0.00  0.00    -0.503 OA
ATOM     14  H7  UNL     1      29.609  28.825  64.217  0.00  0.00    +0.292 HD
ENDBRANCH   4  13
BRANCH   3  15
ATOM     15  O4  UNL     1      26.701  29.506  64.233  0.00  0.00    -0.503 OA
ATOM     16  H8  UNL     1      26.099  29.063  64.856  0.00  0.00    +0.292 HD
ENDBRANCH   3  15
TORSDOF 5
ENDMDL
