MODEL 1
REMARK VINA RESULT:    -7.487      0.000      0.000
REMARK INTER + INTRA:         -10.217
REMARK INTER:                  -9.675
REMARK INTRA:                  -0.542
REMARK UNBOUND:                -0.542
REMARK  Name = data/mahkota_dewa_dn/results/docking/ligands/pdb/Naringeninchalcone.pdb
REMARK  7 active torsions:
REMARK  status: ('A' for Active; 'I' for Inactive)
REMARK    1  A    between atoms: C3_3  and  O5_20
REMARK    2  A    between atoms: C6_6  and  C7_7
REMARK    3  A    between atoms: C8_8  and  C9_9
REMARK    4  A    between atoms: C9_9  and  C10_11
REMARK    5  A    between atoms: C11_12  and  O4_19
REMARK    6  A    between atoms: C13_14  and  O3_18
REMARK    7  A    between atoms: C15_16  and  O2_17
REMARK                            x       y       z     vdW  Elec       q    Type
REMARK                         _______ _______ _______ _____ _____    ______ ____
ROOT
ATOM      1  C9  UNL     1      57.772  19.617   7.750  0.00  0.00    +0.193 C 
ATOM      2  O1  UNL     1      56.852  18.799   7.715  0.00  0.00    -0.287 OA
ENDROOT
BRANCH   1   3
ATOM      3  C10 UNL     1      58.323  20.121   6.465  0.00  0.00    +0.104 A 
ATOM      4  C11 UNL     1      59.111  19.244   5.696  0.00  0.00    +0.135 A 
ATOM      5  C12 UNL     1      59.636  19.631   4.463  0.00  0.00    +0.091 A 
ATOM      6  C13 UNL     1      59.397  20.919   4.003  0.00  0.00    +0.124 A 
ATOM      7  C14 UNL     1      58.653  21.821   4.756  0.00  0.00    +0.091 A 
ATOM      8  C15 UNL     1      58.125  21.426   5.989  0.00  0.00    +0.135 A 
BRANCH   8   9
ATOM      9  O2  UNL     1      57.443  22.350   6.731  0.00  0.00    -0.506 OA
ATOM     10  H9  UNL     1      56.688  22.685   6.217  0.00  0.00    +0.292 HD
ENDBRANCH   8   9
BRANCH   6  11
ATOM     11  O3  UNL     1      59.890  21.348   2.806  0.00  0.00    -0.507 OA
ATOM     12  H10 UNL     1      60.755  21.765   2.956  0.00  0.00    +0.292 HD
ENDBRANCH   6  11
BRANCH   4  13
ATOM     13  O4  UNL     1      59.416  17.966   6.095  0.00  0.00    -0.506 OA
ATOM     14  H11 UNL     1      59.902  17.529   5.359  0.00  0.00    +0.292 HD
ENDBRANCH   4  13
ENDBRANCH   1   3
BRANCH   1  16
ATOM     15  C7  UNL     1      57.700  19.793  10.189  0.00  0.00    +0.012 C 
ATOM     16  C8  UNL     1      58.262  20.184   9.035  0.00  0.00    +0.052 C 
BRANCH  15  22
ATOM     17  C1  UNL     1      58.464  21.637  11.647  0.00  0.00    +0.011 A 
ATOM     18  C2  UNL     1      58.885  22.146  12.879  0.00  0.00    +0.046 A 
ATOM     19  C3  UNL     1      58.965  21.298  13.977  0.00  0.00    +0.117 A 
ATOM     20  C4  UNL     1      58.635  19.954  13.860  0.00  0.00    +0.046 A 
ATOM     21  C5  UNL     1      58.215  19.446  12.629  0.00  0.00    +0.011 A 
ATOM     22  C6  UNL     1      58.111  20.287  11.511  0.00  0.00    -0.025 A 
BRANCH  19  23
ATOM     23  O5  UNL     1      59.370  21.749  15.197  0.00  0.00    -0.507 OA
ATOM     24  H12 UNL     1      60.243  22.164  15.100  0.00  0.00    +0.292 HD
ENDBRANCH  19  23
ENDBRANCH  15  22
ENDBRANCH   1  16
TORSDOF 7
ENDMDL
MODEL 2
REMARK VINA RESULT:    -7.418     18.923     21.157
REMARK INTER + INTRA:         -10.129
REMARK INTER:                  -9.317
REMARK INTRA:                  -0.812
REMARK UNBOUND:                -0.542
REMARK  Name = data/mahkota_dewa_dn/results/docking/ligands/pdb/Naringeninchalcone.pdb
REMARK  7 active torsions:
REMARK  status: ('A' for Active; 'I' for Inactive)
REMARK    1  A    between atoms: C3_3  and  O5_20
REMARK    2  A    between atoms: C6_6  and  C7_7
REMARK    3  A    between atoms: C8_8  and  C9_9
REMARK    4  A    between atoms: C9_9  and  C10_11
REMARK    5  A    between atoms: C11_12  and  O4_19
REMARK    6  A    between atoms: C13_14  and  O3_18
REMARK    7  A    between atoms: C15_16  and  O2_17
REMARK                            x       y       z     vdW  Elec       q    Type
REMARK                         _______ _______ _______ _____ _____    ______ ____
ROOT
ATOM      1  C9  UNL     1      41.371   8.953  12.715  0.00  0.00    +0.193 C 
ATOM      2  O1  UNL     1      40.377   9.275  12.063  0.00  0.00    -0.287 OA
ENDROOT
BRANCH   1   3
ATOM      3  C10 UNL     1      41.186   8.095  13.914  0.00  0.00    +0.104 A 
ATOM      4  C11 UNL     1      40.870   6.738  13.712  0.00  0.00    +0.135 A 
ATOM      5  C12 UNL     1      40.713   5.861  14.787  0.00  0.00    +0.091 A 
ATOM      6  C13 UNL     1      40.846   6.349  16.079  0.00  0.00    +0.124 A 
ATOM      7  C14 UNL     1      41.121   7.692  16.313  0.00  0.00    +0.091 A 
ATOM      8  C15 UNL     1      41.282   8.566  15.233  0.00  0.00    +0.135 A 
BRANCH   8   9
ATOM      9  O2  UNL     1      41.500   9.890  15.494  0.00  0.00    -0.506 OA
ATOM     10  H9  UNL     1      40.919  10.177  16.220  0.00  0.00    +0.292 HD
ENDBRANCH   8   9
BRANCH   6  11
ATOM     11  O3  UNL     1      40.699   5.535  17.163  0.00  0.00    -0.507 OA
ATOM     12  H10 UNL     1      39.803   5.157  17.152  0.00  0.00    +0.292 HD
ENDBRANCH   6  11
BRANCH   4  13
ATOM     13  O4  UNL     1      40.694   6.188  12.467  0.00  0.00    -0.506 OA
ATOM     14  H11 UNL     1      41.580   5.922  12.128  0.00  0.00    +0.292 HD
ENDBRANCH   4  13
ENDBRANCH   1   3
BRANCH   1  16
ATOM     15  C7  UNL     1      43.691   8.364  12.208  0.00  0.00    +0.012 C 
ATOM     16  C8  UNL     1      42.744   9.313  12.271  0.00  0.00    +0.052 C 
BRANCH  15  22
ATOM     17  C1  UNL     1      45.742   9.742  12.274  0.00  0.00    +0.011 A 
ATOM     18  C2  UNL     1      47.050  10.031  11.875  0.00  0.00    +0.046 A 
ATOM     19  C3  UNL     1      47.690   9.193  10.970  0.00  0.00    +0.117 A 
ATOM     20  C4  UNL     1      47.042   8.077  10.456  0.00  0.00    +0.046 A 
ATOM     21  C5  UNL     1      45.734   7.789  10.855  0.00  0.00    +0.011 A 
ATOM     22  C6  UNL     1      45.075   8.611  11.780  0.00  0.00    -0.025 A 
BRANCH  19  23
ATOM     23  O5  UNL     1      48.964   9.436  10.553  0.00  0.00    -0.507 OA
ATOM     24  H12 UNL     1      49.577   9.179  11.262  0.00  0.00    +0.292 HD
ENDBRANCH  19  23
ENDBRANCH  15  22
ENDBRANCH   1  16
TORSDOF 7
ENDMDL
MODEL 3
REMARK VINA RESULT:    -7.372     18.615     20.945
REMARK INTER + INTRA:         -10.068
REMARK INTER:                  -9.385
REMARK INTRA:                  -0.683
REMARK UNBOUND:                -0.542
REMARK  Name = data/mahkota_dewa_dn/results/docking/ligands/pdb/Naringeninchalcone.pdb
REMARK  7 active torsions:
REMARK  status: ('A' for Active; 'I' for Inactive)
REMARK    1  A    between atoms: C3_3  and  O5_20
REMARK    2  A    between atoms: C6_6  and  C7_7
REMARK    3  A    between atoms: C8_8  and  C9_9
REMARK    4  A    between atoms: C9_9  and  C10_11
REMARK    5  A    between atoms: C11_12  and  O4_19
REMARK    6  A    between atoms: C13_14  and  O3_18
REMARK    7  A    between atoms: C15_16  and  O2_17
REMARK                            x       y       z     vdW  Elec       q    Type
REMARK                         _______ _______ _______ _____ _____    ______ ____
ROOT
ATOM      1  C9  UNL     1      41.818   9.250  12.899  0.00  0.00    +0.193 C 
ATOM      2  O1  UNL     1      41.026  10.150  12.615  0.00  0.00    -0.287 OA
ENDROOT
BRANCH   1   3
ATOM      3  C10 UNL     1      41.450   8.292  13.974  0.00  0.00    +0.104 A 
ATOM      4  C11 UNL     1      41.462   8.756  15.304  0.00  0.00    +0.135 A 
ATOM      5  C12 UNL     1      41.096   7.927  16.365  0.00  0.00    +0.091 A 
ATOM      6  C13 UNL     1      40.741   6.611  16.102  0.00  0.00    +0.124 A 
ATOM      7  C14 UNL     1      40.755   6.112  14.804  0.00  0.00    +0.091 A 
ATOM      8  C15 UNL     1      41.118   6.948  13.743  0.00  0.00    +0.135 A 
BRANCH   8   9
ATOM      9  O2  UNL     1      41.173   6.416  12.484  0.00  0.00    -0.506 OA
ATOM     10  H9  UNL     1      41.543   7.073  11.870  0.00  0.00    +0.292 HD
ENDBRANCH   8   9
BRANCH   6  11
ATOM     11  O3  UNL     1      40.379   5.760  17.103  0.00  0.00    -0.507 OA
ATOM     12  H10 UNL     1      39.597   5.257  16.819  0.00  0.00    +0.292 HD
ENDBRANCH   6  11
BRANCH   4  13
ATOM     13  O4  UNL     1      41.828  10.033  15.647  0.00  0.00    -0.506 OA
ATOM     14  H11 UNL     1      42.771  10.010  15.930  0.00  0.00    +0.292 HD
ENDBRANCH   4  13
ENDBRANCH   1   3
BRANCH   1  16
ATOM     15  C7  UNL     1      44.256   9.302  12.698  0.00  0.00    +0.012 C 
ATOM     16  C8  UNL     1      43.071   9.042  12.124  0.00  0.00    +0.052 C 
BRANCH  15  22
ATOM     17  C1  UNL     1      46.555  10.083  12.237  0.00  0.00    +0.011 A 
ATOM     18  C2  UNL     1      47.794   9.973  11.598  0.00  0.00    +0.046 A 
ATOM     19  C3  UNL     1      48.024   8.908  10.735  0.00  0.00    +0.117 A 
ATOM     20  C4  UNL     1      47.038   7.960  10.498  0.00  0.00    +0.046 A 
ATOM     21  C5  UNL     1      45.800   8.071  11.136  0.00  0.00    +0.011 A 
ATOM     22  C6  UNL     1      45.550   9.127  12.025  0.00  0.00    -0.025 A 
BRANCH  19  23
ATOM     23  O5  UNL     1      49.216   8.760  10.090  0.00  0.00    -0.507 OA
ATOM     24  H12 UNL     1      49.578   7.885  10.305  0.00  0.00    +0.292 HD
ENDBRANCH  19  23
ENDBRANCH  15  22
ENDBRANCH   1  16
TORSDOF 7
ENDMDL
MODEL 4
REMARK VINA RESULT:    -7.360     19.254     21.406
REMARK INTER + INTRA:         -10.053
REMARK INTER:                  -9.273
REMARK INTRA:                  -0.780
REMARK UNBOUND:                -0.542
REMARK  Name = data/mahkota_dewa_dn/results/docking/ligands/pdb/Naringeninchalcone.pdb
REMARK  7 active torsions:
REMARK  status: ('A' for Active; 'I' for Inactive)
REMARK    1  A    between atoms: C3_3  and  O5_20
REMARK    2  A    between atoms: C6_6  and  C7_7
REMARK    3  A    between atoms: C8_8  and  C9_9
REMARK    4  A    between atoms: C9_9  and  C10_11
REMARK    5  A    between atoms: C11_12  and  O4_19
REMARK    6  A    between atoms: C13_14  and  O3_18
REMARK    7  A    between atoms: C15_16  and  O2_17
REMARK                            x       y       z     vdW  Elec       q    Type
REMARK                         _______ _______ _______ _____ _____    ______ ____
ROOT
ATOM      1  C9  UNL     1      42.670   8.080  10.688  0.00  0.00    +0.193 C 
ATOM      2  O1  UNL     1      42.025   8.800   9.924  0.00  0.00    -0.287 OA
ENDROOT
BRANCH   1   3
ATOM      3  C10 UNL     1      41.961   7.439  11.827  0.00  0.00    +0.104 A 
ATOM      4  C11 UNL     1      41.025   6.427  11.536  0.00  0.00    +0.135 A 
ATOM      5  C12 UNL     1      40.344   5.755  12.552  0.00  0.00    +0.091 A 
ATOM      6  C13 UNL     1      40.576   6.115  13.872  0.00  0.00    +0.124 A 
ATOM      7  C14 UNL     1      41.466   7.136  14.190  0.00  0.00    +0.091 A 
ATOM      8  C15 UNL     1      42.150   7.803  13.169  0.00  0.00    +0.135 A 
BRANCH   8   9
ATOM      9  O2  UNL     1      42.978   8.837  13.508  0.00  0.00    -0.506 OA
ATOM     10  H9  UNL     1      43.758   8.831  12.927  0.00  0.00    +0.292 HD
ENDBRANCH   8   9
BRANCH   6  11
ATOM     11  O3  UNL     1      39.934   5.492  14.901  0.00  0.00    -0.507 OA
ATOM     12  H10 UNL     1      40.590   5.013  15.435  0.00  0.00    +0.292 HD
ENDBRANCH   6  11
BRANCH   4  13
ATOM     13  O4  UNL     1      40.720   6.035  10.257  0.00  0.00    -0.506 OA
ATOM     14  H11 UNL     1      39.986   6.606   9.934  0.00  0.00    +0.292 HD
ENDBRANCH   4  13
ENDBRANCH   1   3
BRANCH   1  16
ATOM     15  C7  UNL     1      44.425   6.599   9.845  0.00  0.00    +0.012 C 
ATOM     16  C8  UNL     1      44.100   7.759  10.436  0.00  0.00    +0.052 C 
BRANCH  15  22
ATOM     17  C1  UNL     1      46.415   6.669   8.382  0.00  0.00    +0.011 A 
ATOM     18  C2  UNL     1      47.715   6.285   8.044  0.00  0.00    +0.046 A 
ATOM     19  C3  UNL     1      48.403   5.403   8.870  0.00  0.00    +0.117 A 
ATOM     20  C4  UNL     1      47.810   4.900  10.020  0.00  0.00    +0.046 A 
ATOM     21  C5  UNL     1      46.510   5.285  10.357  0.00  0.00    +0.011 A 
ATOM     22  C6  UNL     1      45.803   6.186   9.547  0.00  0.00    -0.025 A 
BRANCH  19  23
ATOM     23  O5  UNL     1      49.672   5.000   8.580  0.00  0.00    -0.507 OA
ATOM     24  H12 UNL     1      50.011   5.543   7.850  0.00  0.00    +0.292 HD
ENDBRANCH  19  23
ENDBRANCH  15  22
ENDBRANCH   1  16
TORSDOF 7
ENDMDL
MODEL 5
REMARK VINA RESULT:    -7.304     18.534     20.507
REMARK INTER + INTRA:          -9.981
REMARK INTER:                  -9.288
REMARK INTRA:                  -0.693
REMARK UNBOUND:                -0.542
REMARK  Name = data/mahkota_dewa_dn/results/docking/ligands/pdb/Naringeninchalcone.pdb
REMARK  7 active torsions:
REMARK  status: ('A' for Active; 'I' for Inactive)
REMARK    1  A    between atoms: C3_3  and  O5_20
REMARK    2  A    between atoms: C6_6  and  C7_7
REMARK    3  A    between atoms: C8_8  and  C9_9
REMARK    4  A    between atoms: C9_9  and  C10_11
REMARK    5  A    between atoms: C11_12  and  O4_19
REMARK    6  A    between atoms: C13_14  and  O3_18
REMARK    7  A    between atoms: C15_16  and  O2_17
REMARK                            x       y       z     vdW  Elec       q    Type
REMARK                         _______ _______ _______ _____ _____    ______ ____
ROOT
ATOM      1  C9  UNL     1      43.709   7.488  11.028  0.00  0.00    +0.193 C 
ATOM      2  O1  UNL     1      43.773   7.409  12.255  0.00  0.00    -0.287 OA
ENDROOT
BRANCH   1   3
ATOM      3  C10 UNL     1      42.427   7.919  10.410  0.00  0.00    +0.104 A 
ATOM      4  C11 UNL     1      41.978   9.228  10.668  0.00  0.00    +0.135 A 
ATOM      5  C12 UNL     1      40.802   9.718  10.098  0.00  0.00    +0.091 A 
ATOM      6  C13 UNL     1      40.050   8.883   9.284  0.00  0.00    +0.124 A 
ATOM      7  C14 UNL     1      40.447   7.573   9.040  0.00  0.00    +0.091 A 
ATOM      8  C15 UNL     1      41.629   7.089   9.609  0.00  0.00    +0.135 A 
BRANCH   8   9
ATOM      9  O2  UNL     1      41.966   5.781   9.394  0.00  0.00    -0.506 OA
ATOM     10  H9  UNL     1      42.357   5.689   8.508  0.00  0.00    +0.292 HD
ENDBRANCH   8   9
BRANCH   6  11
ATOM     11  O3  UNL     1      38.891   9.312   8.706  0.00  0.00    -0.507 OA
ATOM     12  H10 UNL     1      38.141   8.984   9.229  0.00  0.00    +0.292 HD
ENDBRANCH   6  11
BRANCH   4  13
ATOM     13  O4  UNL     1      42.651  10.103  11.484  0.00  0.00    -0.506 OA
ATOM     14  H11 UNL     1      43.115  10.754  10.910  0.00  0.00    +0.292 HD
ENDBRANCH   4  13
ENDBRANCH   1   3
BRANCH   1  16
ATOM     15  C7  UNL     1      45.623   6.143  10.312  0.00  0.00    +0.012 C 
ATOM     16  C8  UNL     1      44.903   7.266  10.169  0.00  0.00    +0.052 C 
BRANCH  15  22
ATOM     17  C1  UNL     1      46.899   6.311   8.202  0.00  0.00    +0.011 A 
ATOM     18  C2  UNL     1      48.002   6.013   7.397  0.00  0.00    +0.046 A 
ATOM     19  C3  UNL     1      49.021   5.214   7.903  0.00  0.00    +0.117 A 
ATOM     20  C4  UNL     1      48.950   4.708   9.194  0.00  0.00    +0.046 A 
ATOM     21  C5  UNL     1      47.847   5.006   9.998  0.00  0.00    +0.011 A 
ATOM     22  C6  UNL     1      46.815   5.824   9.515  0.00  0.00    -0.025 A 
BRANCH  19  23
ATOM     23  O5  UNL     1      50.114   4.897   7.155  0.00  0.00    -0.507 OA
ATOM     24  H12 UNL     1      49.883   4.984   6.215  0.00  0.00    +0.292 HD
ENDBRANCH  19  23
ENDBRANCH  15  22
ENDBRANCH   1  16
TORSDOF 7
ENDMDL
MODEL 6
REMARK VINA RESULT:    -7.270     15.069     16.937
REMARK INTER + INTRA:          -9.937
REMARK INTER:                  -9.241
REMARK INTRA:                  -0.697
REMARK UNBOUND:                -0.542
REMARK  Name = data/mahkota_dewa_dn/results/docking/ligands/pdb/Naringeninchalcone.pdb
REMARK  7 active torsions:
REMARK  status: ('A' for Active; 'I' for Inactive)
REMARK    1  A    between atoms: C3_3  and  O5_20
REMARK    2  A    between atoms: C6_6  and  C7_7
REMARK    3  A    between atoms: C8_8  and  C9_9
REMARK    4  A    between atoms: C9_9  and  C10_11
REMARK    5  A    between atoms: C11_12  and  O4_19
REMARK    6  A    between atoms: C13_14  and  O3_18
REMARK    7  A    between atoms: C15_16  and  O2_17
REMARK                            x       y       z     vdW  Elec       q    Type
REMARK                         _______ _______ _______ _____ _____    ______ ____
ROOT
ATOM      1  C9  UNL     1      45.996   9.064  12.559  0.00  0.00    +0.193 C 
ATOM      2  O1  UNL     1      45.688   8.865  13.735  0.00  0.00    -0.287 OA
ENDROOT
BRANCH   1   3
ATOM      3  C10 UNL     1      45.215   8.381  11.494  0.00  0.00    +0.104 A 
ATOM      4  C11 UNL     1      43.875   8.771  11.306  0.00  0.00    +0.135 A 
ATOM      5  C12 UNL     1      43.087   8.201  10.306  0.00  0.00    +0.091 A 
ATOM      6  C13 UNL     1      43.631   7.209   9.501  0.00  0.00    +0.124 A 
ATOM      7  C14 UNL     1      44.940   6.776   9.686  0.00  0.00    +0.091 A 
ATOM      8  C15 UNL     1      45.727   7.354  10.687  0.00  0.00    +0.135 A 
BRANCH   8   9
ATOM      9  O2  UNL     1      46.992   6.871  10.880  0.00  0.00    -0.506 OA
ATOM     10  H9  UNL     1      47.484   7.474  11.463  0.00  0.00    +0.292 HD
ENDBRANCH   8   9
BRANCH   6  11
ATOM     11  O3  UNL     1      42.902   6.618   8.513  0.00  0.00    -0.507 OA
ATOM     12  H10 UNL     1      42.063   6.301   8.889  0.00  0.00    +0.292 HD
ENDBRANCH   6  11
BRANCH   4  13
ATOM     13  O4  UNL     1      43.257   9.722  12.079  0.00  0.00    -0.506 OA
ATOM     14  H11 UNL     1      43.181  10.544  11.541  0.00  0.00    +0.292 HD
ENDBRANCH   4  13
ENDBRANCH   1   3
BRANCH   1  16
ATOM     15  C7  UNL     1      48.344   9.716  12.337  0.00  0.00    +0.012 C 
ATOM     16  C8  UNL     1      47.052  10.043  12.185  0.00  0.00    +0.052 C 
BRANCH  15  22
ATOM     17  C1  UNL     1      49.950  10.603  10.681  0.00  0.00    +0.011 A 
ATOM     18  C2  UNL     1      51.029  11.413  10.316  0.00  0.00    +0.046 A 
ATOM     19  C3  UNL     1      51.630  12.222  11.274  0.00  0.00    +0.117 A 
ATOM     20  C4  UNL     1      51.173  12.228  12.585  0.00  0.00    +0.046 A 
ATOM     21  C5  UNL     1      50.095  11.417  12.949  0.00  0.00    +0.011 A 
ATOM     22  C6  UNL     1      49.462  10.605  11.996  0.00  0.00    -0.025 A 
BRANCH  19  23
ATOM     23  O5  UNL     1      52.684  13.028  10.964  0.00  0.00    -0.507 OA
ATOM     24  H12 UNL     1      53.378  12.901  11.631  0.00  0.00    +0.292 HD
ENDBRANCH  19  23
ENDBRANCH  15  22
ENDBRANCH   1  16
TORSDOF 7
ENDMDL
MODEL 7
REMARK VINA RESULT:    -7.218     16.313     18.455
REMARK INTER + INTRA:          -9.869
REMARK INTER:                  -9.246
REMARK INTRA:                  -0.624
REMARK UNBOUND:                -0.542
REMARK  Name = data/mahkota_dewa_dn/results/docking/ligands/pdb/Naringeninchalcone.pdb
REMARK  7 active torsions:
REMARK  status: ('A' for Active; 'I' for Inactive)
REMARK    1  A    between atoms: C3_3  and  O5_20
REMARK    2  A    between atoms: C6_6  and  C7_7
REMARK    3  A    between atoms: C8_8  and  C9_9
REMARK    4  A    between atoms: C9_9  and  C10_11
REMARK    5  A    between atoms: C11_12  and  O4_19
REMARK    6  A    between atoms: C13_14  and  O3_18
REMARK    7  A    between atoms: C15_16  and  O2_17
REMARK                            x       y       z     vdW  Elec       q    Type
REMARK                         _______ _______ _______ _____ _____    ______ ____
ROOT
ATOM      1  C9  UNL     1      44.948   8.537  11.808  0.00  0.00    +0.193 C 
ATOM      2  O1  UNL     1      44.843   7.838  10.799  0.00  0.00    -0.287 OA
ENDROOT
BRANCH   1   3
ATOM      3  C10 UNL     1      43.829   8.543  12.787  0.00  0.00    +0.104 A 
ATOM      4  C11 UNL     1      42.678   9.289  12.468  0.00  0.00    +0.135 A 
ATOM      5  C12 UNL     1      41.573   9.318  13.320  0.00  0.00    +0.091 A 
ATOM      6  C13 UNL     1      41.626   8.617  14.517  0.00  0.00    +0.124 A 
ATOM      7  C14 UNL     1      42.762   7.901  14.878  0.00  0.00    +0.091 A 
ATOM      8  C15 UNL     1      43.865   7.871  14.019  0.00  0.00    +0.135 A 
BRANCH   8   9
ATOM      9  O2  UNL     1      44.987   7.203  14.423  0.00  0.00    -0.506 OA
ATOM     10  H9  UNL     1      45.215   6.524  13.765  0.00  0.00    +0.292 HD
ENDBRANCH   8   9
BRANCH   6  11
ATOM     11  O3  UNL     1      40.574   8.615  15.385  0.00  0.00    -0.507 OA
ATOM     12  H10 UNL     1      40.111   9.468  15.317  0.00  0.00    +0.292 HD
ENDBRANCH   6  11
BRANCH   4  13
ATOM     13  O4  UNL     1      42.561  10.030  11.319  0.00  0.00    -0.506 OA
ATOM     14  H11 UNL     1      42.661  10.979  11.561  0.00  0.00    +0.292 HD
ENDBRANCH   4  13
ENDBRANCH   1   3
BRANCH   1  16
ATOM     15  C7  UNL     1      47.383   8.658  12.011  0.00  0.00    +0.012 C 
ATOM     16  C8  UNL     1      46.199   9.281  12.115  0.00  0.00    +0.052 C 
BRANCH  15  22
ATOM     17  C1  UNL     1      48.752  10.701  12.262  0.00  0.00    +0.011 A 
ATOM     18  C2  UNL     1      49.965  11.355  12.493  0.00  0.00    +0.046 A 
ATOM     19  C3  UNL     1      51.110  10.605  12.738  0.00  0.00    +0.117 A 
ATOM     20  C4  UNL     1      51.060   9.218  12.750  0.00  0.00    +0.046 A 
ATOM     21  C5  UNL     1      49.847   8.564  12.519  0.00  0.00    +0.011 A 
ATOM     22  C6  UNL     1      48.675   9.300  12.286  0.00  0.00    -0.025 A 
BRANCH  19  23
ATOM     23  O5  UNL     1      52.314  11.200  12.967  0.00  0.00    -0.507 OA
ATOM     24  H12 UNL     1      52.414  11.340  13.923  0.00  0.00    +0.292 HD
ENDBRANCH  19  23
ENDBRANCH  15  22
ENDBRANCH   1  16
TORSDOF 7
ENDMDL
MODEL 8
REMARK VINA RESULT:    -7.207     10.770     13.235
REMARK INTER + INTRA:          -9.856
REMARK INTER:                  -9.126
REMARK INTRA:                  -0.730
REMARK UNBOUND:                -0.542
REMARK  Name = data/mahkota_dewa_dn/results/docking/ligands/pdb/Naringeninchalcone.pdb
REMARK  7 active torsions:
REMARK  status: ('A' for Active; 'I' for Inactive)
REMARK    1  A    between atoms: C3_3  and  O5_20
REMARK    2  A    between atoms: C6_6  and  C7_7
REMARK    3  A    between atoms: C8_8  and  C9_9
REMARK    4  A    between atoms: C9_9  and  C10_11
REMARK    5  A    between atoms: C11_12  and  O4_19
REMARK    6  A    between atoms: C13_14  and  O3_18
REMARK    7  A    between atoms: C15_16  and  O2_17
REMARK                            x       y       z     vdW  Elec       q    Type
REMARK                         _______ _______ _______ _____ _____    ______ ____
ROOT
ATOM      1  C9  UNL     1      51.676  10.448  11.528  0.00  0.00    +0.193 C 
ATOM      2  O1  UNL     1      52.344  10.096  12.502  0.00  0.00    -0.287 OA
ENDROOT
BRANCH   1   3
ATOM      3  C10 UNL     1      50.242  10.061  11.475  0.00  0.00    +0.104 A 
ATOM      4  C11 UNL     1      49.328  10.806  12.243  0.00  0.00    +0.135 A 
ATOM      5  C12 UNL     1      47.961  10.525  12.220  0.00  0.00    +0.091 A 
ATOM      6  C13 UNL     1      47.503   9.470  11.443  0.00  0.00    +0.124 A 
ATOM      7  C14 UNL     1      48.385   8.691  10.701  0.00  0.00    +0.091 A 
ATOM      8  C15 UNL     1      49.753   8.980  10.724  0.00  0.00    +0.135 A 
BRANCH   8   9
ATOM      9  O2  UNL     1      50.602   8.165  10.027  0.00  0.00    -0.506 OA
ATOM     10  H9  UNL     1      51.132   7.640  10.651  0.00  0.00    +0.292 HD
ENDBRANCH   8   9
BRANCH   6  11
ATOM     11  O3  UNL     1      46.178   9.152  11.388  0.00  0.00    -0.507 OA
ATOM     12  H10 UNL     1      45.963   8.577  12.142  0.00  0.00    +0.292 HD
ENDBRANCH   6  11
BRANCH   4  13
ATOM     13  O4  UNL     1      49.706  11.844  13.058  0.00  0.00    -0.506 OA
ATOM     14  H11 UNL     1      49.052  11.905  13.791  0.00  0.00    +0.292 HD
ENDBRANCH   4  13
ENDBRANCH   1   3
BRANCH   1  16
ATOM     15  C7  UNL     1      52.295  12.656  10.676  0.00  0.00    +0.012 C 
ATOM     16  C8  UNL     1      52.241  11.331  10.473  0.00  0.00    +0.052 C 
BRANCH  15  22
ATOM     17  C1  UNL     1      53.197  14.895  10.146  0.00  0.00    +0.011 A 
ATOM     18  C2  UNL     1      53.693  15.849   9.252  0.00  0.00    +0.046 A 
ATOM     19  C3  UNL     1      53.817  15.524   7.906  0.00  0.00    +0.117 A 
ATOM     20  C4  UNL     1      53.450  14.267   7.443  0.00  0.00    +0.046 A 
ATOM     21  C5  UNL     1      52.955  13.315   8.337  0.00  0.00    +0.011 A 
ATOM     22  C6  UNL     1      52.836  13.615   9.703  0.00  0.00    -0.025 A 
BRANCH  19  23
ATOM     23  O5  UNL     1      54.294  16.421   6.999  0.00  0.00    -0.507 OA
ATOM     24  H12 UNL     1      54.569  17.224   7.471  0.00  0.00    +0.292 HD
ENDBRANCH  19  23
ENDBRANCH  15  22
ENDBRANCH   1  16
TORSDOF 7
ENDMDL
MODEL 9
REMARK VINA RESULT:    -7.206     19.241     21.600
REMARK INTER + INTRA:          -9.854
REMARK INTER:                  -9.062
REMARK INTRA:                  -0.792
REMARK UNBOUND:                -0.542
REMARK  Name = data/mahkota_dewa_dn/results/docking/ligands/pdb/Naringeninchalcone.pdb
REMARK  7 active torsions:
REMARK  status: ('A' for Active; 'I' for Inactive)
REMARK    1  A    between atoms: C3_3  and  O5_20
REMARK    2  A    between atoms: C6_6  and  C7_7
REMARK    3  A    between atoms: C8_8  and  C9_9
REMARK    4  A    between atoms: C9_9  and  C10_11
REMARK    5  A    between atoms: C11_12  and  O4_19
REMARK    6  A    between atoms: C13_14  and  O3_18
REMARK    7  A    between atoms: C15_16  and  O2_17
REMARK                            x       y       z     vdW  Elec       q    Type
REMARK                         _______ _______ _______ _____ _____    ______ ____
ROOT
ATOM      1  C9  UNL     1      42.137   9.059  12.714  0.00  0.00    +0.193 C 
ATOM      2  O1  UNL     1      41.402  10.046  12.643  0.00  0.00    -0.287 OA
ENDROOT
BRANCH   1   3
ATOM      3  C10 UNL     1      41.798   7.992  13.692  0.00  0.00    +0.104 A 
ATOM      4  C11 UNL     1      40.699   7.160  13.407  0.00  0.00    +0.135 A 
ATOM      5  C12 UNL     1      40.339   6.115  14.259  0.00  0.00    +0.091 A 
ATOM      6  C13 UNL     1      41.066   5.915  15.424  0.00  0.00    +0.124 A 
ATOM      7  C14 UNL     1      42.134   6.743  15.753  0.00  0.00    +0.091 A 
ATOM      8  C15 UNL     1      42.494   7.786  14.894  0.00  0.00    +0.135 A 
BRANCH   8   9
ATOM      9  O2  UNL     1      43.514   8.615  15.269  0.00  0.00    -0.506 OA
ATOM     10  H9  UNL     1      43.152   9.372  15.760  0.00  0.00    +0.292 HD
ENDBRANCH   8   9
BRANCH   6  11
ATOM     11  O3  UNL     1      40.753   4.911  16.292  0.00  0.00    -0.507 OA
ATOM     12  H10 UNL     1      40.743   5.270  17.196  0.00  0.00    +0.292 HD
ENDBRANCH   6  11
BRANCH   4  13
ATOM     13  O4  UNL     1      39.915   7.312  12.291  0.00  0.00    -0.506 OA
ATOM     14  H11 UNL     1      39.918   8.266  12.048  0.00  0.00    +0.292 HD
ENDBRANCH   4  13
ENDBRANCH   1   3
BRANCH   1  16
ATOM     15  C7  UNL     1      43.723   7.629  11.522  0.00  0.00    +0.012 C 
ATOM     16  C8  UNL     1      43.278   8.868  11.781  0.00  0.00    +0.052 C 
BRANCH  15  22
ATOM     17  C1  UNL     1      44.570   6.659   9.412  0.00  0.00    +0.011 A 
ATOM     18  C2  UNL     1      45.603   6.331   8.529  0.00  0.00    +0.046 A 
ATOM     19  C3  UNL     1      46.912   6.664   8.856  0.00  0.00    +0.117 A 
ATOM     20  C4  UNL     1      47.203   7.314  10.049  0.00  0.00    +0.046 A 
ATOM     21  C5  UNL     1      46.170   7.641  10.930  0.00  0.00    +0.011 A 
ATOM     22  C6  UNL     1      44.839   7.330  10.614  0.00  0.00    -0.025 A 
BRANCH  19  23
ATOM     23  O5  UNL     1      47.951   6.364   8.027  0.00  0.00    -0.507 OA
ATOM     24  H12 UNL     1      48.585   5.809   8.511  0.00  0.00    +0.292 HD
ENDBRANCH  19  23
ENDBRANCH  15  22
ENDBRANCH   1  16
TORSDOF 7
ENDMDL
