MODEL 1
REMARK VINA RESULT:    -7.502      0.000      0.000
REMARK INTER + INTRA:         -10.619
REMARK INTER:                 -10.134
REMARK INTRA:                  -0.485
REMARK UNBOUND:                -0.485
REMARK  Name = data/mahkota_dewa_dn/results/docking/ligands/pdb/Swertianin.pdb
REMARK  11 active torsions:
REMARK  status: ('A' for Active; 'I' for Inactive)
REMARK    1  A    between atoms: C1_1  and  O1_2
REMARK    2  A    between atoms: O1_2  and  C2_3
REMARK    3  A    between atoms: C6_7  and  C9_11
REMARK    4  A    between atoms: C7_8  and  O2_9
REMARK    5  A    between atoms: O2_9  and  C8_10
REMARK    6  A    between atoms: C13_16  and  O8_27
REMARK    7  A    between atoms: C14_17  and  O7_25
REMARK    8  A    between atoms: C15_18  and  O6_24
REMARK    9  A    between atoms: C16_19  and  O5_22
REMARK   10  A    between atoms: O5_22  and  C18_23
REMARK   11  A    between atoms: O7_25  and  C19_26
REMARK                            x       y       z     vdW  Elec       q    Type
REMARK                         _______ _______ _______ _____ _____    ______ ____
ROOT
ATOM      1  C9  UNL     1      45.084   7.026  10.614  0.00  0.00    +0.143 A 
ATOM      2  C10 UNL     1      44.200   7.058   9.611  0.00  0.00    +0.098 A 
ATOM      3  C11 UNL     1      42.779   7.302   9.908  0.00  0.00    +0.197 A 
ATOM      4  O3  UNL     1      41.978   7.313   8.983  0.00  0.00    -0.287 OA
ATOM      5  C12 UNL     1      42.426   7.520  11.332  0.00  0.00    +0.113 A 
ATOM      6  C13 UNL     1      41.113   7.758  11.761  0.00  0.00    +0.177 A 
ATOM      7  C14 UNL     1      40.799   7.937  13.121  0.00  0.00    +0.208 A 
ATOM      8  C15 UNL     1      41.836   7.886  14.052  0.00  0.00    +0.209 A 
ATOM      9  C16 UNL     1      43.164   7.682  13.635  0.00  0.00    +0.209 A 
ATOM     10  C17 UNL     1      43.454   7.472  12.280  0.00  0.00    +0.188 A 
ATOM     11  O4  UNL     1      44.756   7.192  11.943  0.00  0.00    -0.451 OA
ENDROOT
BRANCH   1  16
ATOM     12  C2  UNL     1      48.849   7.491  10.138  0.00  0.00    +0.162 A 
ATOM     13  C3  UNL     1      49.227   6.167   9.901  0.00  0.00    +0.049 A 
ATOM     14  C4  UNL     1      48.271   5.149   9.907  0.00  0.00    +0.004 A 
ATOM     15  C5  UNL     1      46.928   5.445  10.142  0.00  0.00    +0.015 A 
ATOM     16  C6  UNL     1      46.518   6.766  10.378  0.00  0.00    +0.063 A 
ATOM     17  C7  UNL     1      47.496   7.778  10.404  0.00  0.00    +0.172 A 
BRANCH  12  19
ATOM     18  C1  UNL     1      50.708   8.586  11.155  0.00  0.00    +0.277 C 
ATOM     19  O1  UNL     1      49.711   8.557  10.143  0.00  0.00    -0.491 OA
ENDBRANCH  12  19
BRANCH  17  20
ATOM     20  O2  UNL     1      47.106   9.080  10.635  0.00  0.00    -0.491 OA
ATOM     21  C8  UNL     1      47.244   9.403  12.018  0.00  0.00    +0.277 C 
ENDBRANCH  17  20
ENDBRANCH   1  16
BRANCH   9  22
ATOM     22  O5  UNL     1      44.088   7.650  14.656  0.00  0.00    -0.488 OA
ATOM     23  C18 UNL     1      44.736   8.898  14.906  0.00  0.00    +0.277 C 
ENDBRANCH   9  22
BRANCH   8  24
ATOM     24  O6  UNL     1      41.616   8.037  15.397  0.00  0.00    -0.501 OA
ATOM     25  H14 UNL     1      40.837   7.483  15.604  0.00  0.00    +0.292 HD
ENDBRANCH   8  24
BRANCH   7  26
ATOM     26  O7  UNL     1      39.460   8.143  13.348  0.00  0.00    -0.488 OA
ATOM     27  C19 UNL     1      38.723   7.115  13.997  0.00  0.00    +0.277 C 
ENDBRANCH   7  26
BRANCH   6  28
ATOM     28  O8  UNL     1      40.077   7.816  10.861  0.00  0.00    -0.503 OA
ATOM     29  H18 UNL     1      39.279   8.044  11.375  0.00  0.00    +0.292 HD
ENDBRANCH   6  28
TORSDOF 7
ENDMDL
MODEL 2
REMARK VINA RESULT:    -7.321      1.448      3.561
REMARK INTER + INTRA:         -10.374
REMARK INTER:                  -9.876
REMARK INTRA:                  -0.498
REMARK UNBOUND:                -0.485
REMARK  Name = data/mahkota_dewa_dn/results/docking/ligands/pdb/Swertianin.pdb
REMARK  11 active torsions:
REMARK  status: ('A' for Active; 'I' for Inactive)
REMARK    1  A    between atoms: C1_1  and  O1_2
REMARK    2  A    between atoms: O1_2  and  C2_3
REMARK    3  A    between atoms: C6_7  and  C9_11
REMARK    4  A    between atoms: C7_8  and  O2_9
REMARK    5  A    between atoms: O2_9  and  C8_10
REMARK    6  A    between atoms: C13_16  and  O8_27
REMARK    7  A    between atoms: C14_17  and  O7_25
REMARK    8  A    between atoms: C15_18  and  O6_24
REMARK    9  A    between atoms: C16_19  and  O5_22
REMARK   10  A    between atoms: O5_22  and  C18_23
REMARK   11  A    between atoms: O7_25  and  C19_26
REMARK                            x       y       z     vdW  Elec       q    Type
REMARK                         _______ _______ _______ _____ _____    ______ ____
ROOT
ATOM      1  C9  UNL     1      45.486   8.423  12.408  0.00  0.00    +0.143 A 
ATOM      2  C10 UNL     1      45.598   7.984  13.667  0.00  0.00    +0.098 A 
ATOM      3  C11 UNL     1      44.384   7.810  14.482  0.00  0.00    +0.197 A 
ATOM      4  O3  UNL     1      44.502   7.423  15.636  0.00  0.00    -0.287 OA
ATOM      5  C12 UNL     1      43.092   8.123  13.824  0.00  0.00    +0.113 A 
ATOM      6  C13 UNL     1      41.859   8.008  14.481  0.00  0.00    +0.177 A 
ATOM      7  C14 UNL     1      40.648   8.336  13.844  0.00  0.00    +0.208 A 
ATOM      8  C15 UNL     1      40.693   8.771  12.520  0.00  0.00    +0.209 A 
ATOM      9  C16 UNL     1      41.919   8.860  11.836  0.00  0.00    +0.209 A 
ATOM     10  C17 UNL     1      43.118   8.562  12.496  0.00  0.00    +0.188 A 
ATOM     11  O4  UNL     1      44.290   8.750  11.805  0.00  0.00    -0.451 OA
ENDROOT
BRANCH   1  16
ATOM     12  C2  UNL     1      48.235   7.940   9.795  0.00  0.00    +0.162 A 
ATOM     13  C3  UNL     1      48.950   9.127   9.977  0.00  0.00    +0.049 A 
ATOM     14  C4  UNL     1      48.534  10.063  10.926  0.00  0.00    +0.004 A 
ATOM     15  C5  UNL     1      47.405   9.818  11.708  0.00  0.00    +0.015 A 
ATOM     16  C6  UNL     1      46.668   8.635  11.551  0.00  0.00    +0.063 A 
ATOM     17  C7  UNL     1      47.078   7.715  10.567  0.00  0.00    +0.172 A 
BRANCH  12  19
ATOM     18  C1  UNL     1      49.561   6.023   9.293  0.00  0.00    +0.277 C 
ATOM     19  O1  UNL     1      48.569   6.960   8.897  0.00  0.00    -0.491 OA
ENDBRANCH  12  19
BRANCH  17  20
ATOM     20  O2  UNL     1      46.364   6.548  10.404  0.00  0.00    -0.491 OA
ATOM     21  C8  UNL     1      45.461   6.666   9.305  0.00  0.00    +0.277 C 
ENDBRANCH  17  20
ENDBRANCH   1  16
BRANCH   9  22
ATOM     22  O5  UNL     1      41.820   9.308  10.537  0.00  0.00    -0.488 OA
ATOM     23  C18 UNL     1      41.825   8.271   9.554  0.00  0.00    +0.277 C 
ENDBRANCH   9  22
BRANCH   8  24
ATOM     24  O6  UNL     1      39.561   9.124  11.831  0.00  0.00    -0.501 OA
ATOM     25  H14 UNL     1      39.006   8.320  11.799  0.00  0.00    +0.292 HD
ENDBRANCH   8  24
BRANCH   7  26
ATOM     26  O7  UNL     1      39.548   8.174  14.651  0.00  0.00    -0.488 OA
ATOM     27  C19 UNL     1      38.713   7.046  14.430  0.00  0.00    +0.277 C 
ENDBRANCH   7  26
BRANCH   6  28
ATOM     28  O8  UNL     1      41.792   7.577  15.783  0.00  0.00    -0.503 OA
ATOM     29  H18 UNL     1      42.578   7.016  15.928  0.00  0.00    +0.292 HD
ENDBRANCH   6  28
TORSDOF 7
ENDMDL
MODEL 3
REMARK VINA RESULT:    -7.305      1.971      7.309
REMARK INTER + INTRA:         -10.353
REMARK INTER:                 -11.011
REMARK INTRA:                   0.658
REMARK UNBOUND:                -0.485
REMARK  Name = data/mahkota_dewa_dn/results/docking/ligands/pdb/Swertianin.pdb
REMARK  11 active torsions:
REMARK  status: ('A' for Active; 'I' for Inactive)
REMARK    1  A    between atoms: C1_1  and  O1_2
REMARK    2  A    between atoms: O1_2  and  C2_3
REMARK    3  A    between atoms: C6_7  and  C9_11
REMARK    4  A    between atoms: C7_8  and  O2_9
REMARK    5  A    between atoms: O2_9  and  C8_10
REMARK    6  A    between atoms: C13_16  and  O8_27
REMARK    7  A    between atoms: C14_17  and  O7_25
REMARK    8  A    between atoms: C15_18  and  O6_24
REMARK    9  A    between atoms: C16_19  and  O5_22
REMARK   10  A    between atoms: O5_22  and  C18_23
REMARK   11  A    between atoms: O7_25  and  C19_26
REMARK                            x       y       z     vdW  Elec       q    Type
REMARK                         _______ _______ _______ _____ _____    ______ ____
ROOT
ATOM      1  C9  UNL     1      44.542   8.408  13.932  0.00  0.00    +0.143 A 
ATOM      2  C10 UNL     1      45.869   8.515  14.054  0.00  0.00    +0.098 A 
ATOM      3  C11 UNL     1      46.734   8.077  12.945  0.00  0.00    +0.197 A 
ATOM      4  O3  UNL     1      47.947   8.166  13.075  0.00  0.00    -0.287 OA
ATOM      5  C12 UNL     1      46.051   7.556  11.736  0.00  0.00    +0.113 A 
ATOM      6  C13 UNL     1      46.747   7.100  10.608  0.00  0.00    +0.177 A 
ATOM      7  C14 UNL     1      46.077   6.586   9.482  0.00  0.00    +0.208 A 
ATOM      8  C15 UNL     1      44.683   6.549   9.501  0.00  0.00    +0.209 A 
ATOM      9  C16 UNL     1      43.969   7.034  10.611  0.00  0.00    +0.209 A 
ATOM     10  C17 UNL     1      44.652   7.511  11.737  0.00  0.00    +0.188 A 
ATOM     11  O4  UNL     1      43.904   7.890  12.825  0.00  0.00    -0.451 OA
ENDROOT
BRANCH   1  16
ATOM     12  C2  UNL     1      41.450   8.788  16.149  0.00  0.00    +0.162 A 
ATOM     13  C3  UNL     1      41.956   9.655  17.121  0.00  0.00    +0.049 A 
ATOM     14  C4  UNL     1      43.281  10.094  17.054  0.00  0.00    +0.004 A 
ATOM     15  C5  UNL     1      44.108   9.678  16.010  0.00  0.00    +0.015 A 
ATOM     16  C6  UNL     1      43.627   8.811  15.017  0.00  0.00    +0.063 A 
ATOM     17  C7  UNL     1      42.301   8.348  15.116  0.00  0.00    +0.172 A 
BRANCH  12  19
ATOM     18  C1  UNL     1      39.919   7.064  16.762  0.00  0.00    +0.277 C 
ATOM     19  O1  UNL     1      40.165   8.311  16.125  0.00  0.00    -0.491 OA
ENDBRANCH  12  19
BRANCH  17  20
ATOM     20  O2  UNL     1      41.816   7.497  14.146  0.00  0.00    -0.491 OA
ATOM     21  C8  UNL     1      40.841   8.162  13.344  0.00  0.00    +0.277 C 
ENDBRANCH  17  20
ENDBRANCH   1  16
BRANCH   9  22
ATOM     22  O5  UNL     1      42.599   6.934  10.501  0.00  0.00    -0.488 OA
ATOM     23  C18 UNL     1      41.966   8.090   9.950  0.00  0.00    +0.277 C 
ENDBRANCH   9  22
BRANCH   8  24
ATOM     24  O6  UNL     1      43.954   6.051   8.452  0.00  0.00    -0.501 OA
ATOM     25  H14 UNL     1      43.365   5.371   8.835  0.00  0.00    +0.292 HD
ENDBRANCH   8  24
BRANCH   7  26
ATOM     26  O7  UNL     1      46.927   6.176   8.484  0.00  0.00    -0.488 OA
ATOM     27  C19 UNL     1      47.101   7.026   7.359  0.00  0.00    +0.277 C 
ENDBRANCH   7  26
BRANCH   6  28
ATOM     28  O8  UNL     1      48.119   7.132  10.566  0.00  0.00    -0.503 OA
ATOM     29  H18 UNL     1      48.378   8.055  10.752  0.00  0.00    +0.292 HD
ENDBRANCH   6  28
TORSDOF 7
ENDMDL
MODEL 4
REMARK VINA RESULT:    -7.116      1.747      7.546
REMARK INTER + INTRA:         -10.098
REMARK INTER:                  -9.778
REMARK INTRA:                  -0.319
REMARK UNBOUND:                -0.485
REMARK  Name = data/mahkota_dewa_dn/results/docking/ligands/pdb/Swertianin.pdb
REMARK  11 active torsions:
REMARK  status: ('A' for Active; 'I' for Inactive)
REMARK    1  A    between atoms: C1_1  and  O1_2
REMARK    2  A    between atoms: O1_2  and  C2_3
REMARK    3  A    between atoms: C6_7  and  C9_11
REMARK    4  A    between atoms: C7_8  and  O2_9
REMARK    5  A    between atoms: O2_9  and  C8_10
REMARK    6  A    between atoms: C13_16  and  O8_27
REMARK    7  A    between atoms: C14_17  and  O7_25
REMARK    8  A    between atoms: C15_18  and  O6_24
REMARK    9  A    between atoms: C16_19  and  O5_22
REMARK   10  A    between atoms: O5_22  and  C18_23
REMARK   11  A    between atoms: O7_25  and  C19_26
REMARK                            x       y       z     vdW  Elec       q    Type
REMARK                         _______ _______ _______ _____ _____    ______ ____
ROOT
ATOM      1  C9  UNL     1      44.145   8.801  11.468  0.00  0.00    +0.143 A 
ATOM      2  C10 UNL     1      44.617   9.815  12.201  0.00  0.00    +0.098 A 
ATOM      3  C11 UNL     1      46.069   9.941  12.409  0.00  0.00    +0.197 A 
ATOM      4  O3  UNL     1      46.487  10.864  13.095  0.00  0.00    -0.287 OA
ATOM      5  C12 UNL     1      46.925   8.921  11.757  0.00  0.00    +0.113 A 
ATOM      6  C13 UNL     1      48.322   8.915  11.874  0.00  0.00    +0.177 A 
ATOM      7  C14 UNL     1      49.111   7.921  11.265  0.00  0.00    +0.208 A 
ATOM      8  C15 UNL     1      48.471   6.931  10.521  0.00  0.00    +0.209 A 
ATOM      9  C16 UNL     1      47.073   6.942  10.366  0.00  0.00    +0.209 A 
ATOM     10  C17 UNL     1      46.300   7.920  11.005  0.00  0.00    +0.188 A 
ATOM     11  O4  UNL     1      44.934   7.829  10.889  0.00  0.00    -0.451 OA
ENDROOT
BRANCH   1  16
ATOM     12  C2  UNL     1      40.504   7.697  11.845  0.00  0.00    +0.162 A 
ATOM     13  C3  UNL     1      39.952   8.298  10.711  0.00  0.00    +0.049 A 
ATOM     14  C4  UNL     1      40.753   9.053   9.852  0.00  0.00    +0.004 A 
ATOM     15  C5  UNL     1      42.115   9.208  10.114  0.00  0.00    +0.015 A 
ATOM     16  C6  UNL     1      42.699   8.613  11.242  0.00  0.00    +0.063 A 
ATOM     17  C7  UNL     1      41.874   7.883  12.119  0.00  0.00    +0.172 A 
BRANCH  12  19
ATOM     18  C1  UNL     1      38.402   7.154  12.832  0.00  0.00    +0.277 C 
ATOM     19  O1  UNL     1      39.802   6.931  12.739  0.00  0.00    -0.491 OA
ENDBRANCH  12  19
BRANCH  17  20
ATOM     20  O2  UNL     1      42.435   7.292  13.230  0.00  0.00    -0.491 OA
ATOM     21  C8  UNL     1      42.217   8.099  14.386  0.00  0.00    +0.277 C 
ENDBRANCH  17  20
ENDBRANCH   1  16
BRANCH   9  22
ATOM     22  O5  UNL     1      46.571   5.906   9.610  0.00  0.00    -0.488 OA
ATOM     23  C18 UNL     1      45.987   4.849  10.373  0.00  0.00    +0.277 C 
ENDBRANCH   9  22
BRANCH   8  24
ATOM     24  O6  UNL     1      49.164   5.918   9.908  0.00  0.00    -0.501 OA
ATOM     25  H14 UNL     1      49.772   5.563  10.585  0.00  0.00    +0.292 HD
ENDBRANCH   8  24
BRANCH   7  26
ATOM     26  O7  UNL     1      50.455   8.072  11.504  0.00  0.00    -0.488 OA
ATOM     27  C19 UNL     1      51.225   8.813  10.567  0.00  0.00    +0.277 C 
ENDBRANCH   7  26
BRANCH   6  28
ATOM     28  O8  UNL     1      48.973   9.882  12.599  0.00  0.00    -0.503 OA
ATOM     29  H18 UNL     1      49.430   9.419  13.327  0.00  0.00    +0.292 HD
ENDBRANCH   6  28
TORSDOF 7
ENDMDL
MODEL 5
REMARK VINA RESULT:    -7.081      1.814      7.062
REMARK INTER + INTRA:         -10.050
REMARK INTER:                  -9.757
REMARK INTRA:                  -0.293
REMARK UNBOUND:                -0.485
REMARK  Name = data/mahkota_dewa_dn/results/docking/ligands/pdb/Swertianin.pdb
REMARK  11 active torsions:
REMARK  status: ('A' for Active; 'I' for Inactive)
REMARK    1  A    between atoms: C1_1  and  O1_2
REMARK    2  A    between atoms: O1_2  and  C2_3
REMARK    3  A    between atoms: C6_7  and  C9_11
REMARK    4  A    between atoms: C7_8  and  O2_9
REMARK    5  A    between atoms: O2_9  and  C8_10
REMARK    6  A    between atoms: C13_16  and  O8_27
REMARK    7  A    between atoms: C14_17  and  O7_25
REMARK    8  A    between atoms: C15_18  and  O6_24
REMARK    9  A    between atoms: C16_19  and  O5_22
REMARK   10  A    between atoms: O5_22  and  C18_23
REMARK   11  A    between atoms: O7_25  and  C19_26
REMARK                            x       y       z     vdW  Elec       q    Type
REMARK                         _______ _______ _______ _____ _____    ______ ____
ROOT
ATOM      1  C9  UNL     1      43.308   7.951  10.301  0.00  0.00    +0.143 A 
ATOM      2  C10 UNL     1      43.681   7.035   9.401  0.00  0.00    +0.098 A 
ATOM      3  C11 UNL     1      45.101   6.660   9.297  0.00  0.00    +0.197 A 
ATOM      4  O3  UNL     1      45.431   5.832   8.459  0.00  0.00    -0.287 OA
ATOM      5  C12 UNL     1      46.035   7.329  10.236  0.00  0.00    +0.113 A 
ATOM      6  C13 UNL     1      47.413   7.073  10.246  0.00  0.00    +0.177 A 
ATOM      7  C14 UNL     1      48.283   7.739  11.130  0.00  0.00    +0.208 A 
ATOM      8  C15 UNL     1      47.741   8.664  12.021  0.00  0.00    +0.209 A 
ATOM      9  C16 UNL     1      46.356   8.907  12.047  0.00  0.00    +0.209 A 
ATOM     10  C17 UNL     1      45.508   8.261  11.137  0.00  0.00    +0.188 A 
ATOM     11  O4  UNL     1      44.178   8.602  11.151  0.00  0.00    -0.451 OA
ENDROOT
BRANCH   1  16
ATOM     12  C2  UNL     1      39.779   8.518  11.656  0.00  0.00    +0.162 A 
ATOM     13  C3  UNL     1      39.223   9.231  10.590  0.00  0.00    +0.049 A 
ATOM     14  C4  UNL     1      39.992   9.525   9.462  0.00  0.00    +0.004 A 
ATOM     15  C5  UNL     1      41.319   9.102   9.385  0.00  0.00    +0.015 A 
ATOM     16  C6  UNL     1      41.903   8.381  10.437  0.00  0.00    +0.063 A 
ATOM     17  C7  UNL     1      41.129   8.122  11.584  0.00  0.00    +0.172 A 
BRANCH  12  19
ATOM     18  C1  UNL     1      38.165   7.112  12.708  0.00  0.00    +0.277 C 
ATOM     19  O1  UNL     1      39.103   8.176  12.798  0.00  0.00    -0.491 OA
ENDBRANCH  12  19
BRANCH  17  20
ATOM     20  O2  UNL     1      41.690   7.414  12.624  0.00  0.00    -0.491 OA
ATOM     21  C8  UNL     1      41.949   8.277  13.731  0.00  0.00    +0.277 C 
ENDBRANCH  17  20
ENDBRANCH   1  16
BRANCH   9  22
ATOM     22  O5  UNL     1      45.955   9.847  12.971  0.00  0.00    -0.488 OA
ATOM     23  C18 UNL     1      45.326   9.302  14.132  0.00  0.00    +0.277 C 
ENDBRANCH   9  22
BRANCH   8  24
ATOM     24  O6  UNL     1      48.519   9.366  12.905  0.00  0.00    -0.501 OA
ATOM     25  H14 UNL     1      48.573   8.815  13.710  0.00  0.00    +0.292 HD
ENDBRANCH   8  24
BRANCH   7  26
ATOM     26  O7  UNL     1      49.597   7.368  10.981  0.00  0.00    -0.488 OA
ATOM     27  C19 UNL     1      50.492   8.294  10.381  0.00  0.00    +0.277 C 
ENDBRANCH   7  26
BRANCH   6  28
ATOM     28  O8  UNL     1      47.968   6.163   9.381  0.00  0.00    -0.503 OA
ATOM     29  H18 UNL     1      47.628   6.386   8.492  0.00  0.00    +0.292 HD
ENDBRANCH   6  28
TORSDOF 7
ENDMDL
MODEL 6
REMARK VINA RESULT:    -7.024      2.481      5.078
REMARK INTER + INTRA:          -9.972
REMARK INTER:                  -9.599
REMARK INTRA:                  -0.374
REMARK UNBOUND:                -0.485
REMARK  Name = data/mahkota_dewa_dn/results/docking/ligands/pdb/Swertianin.pdb
REMARK  11 active torsions:
REMARK  status: ('A' for Active; 'I' for Inactive)
REMARK    1  A    between atoms: C1_1  and  O1_2
REMARK    2  A    between atoms: O1_2  and  C2_3
REMARK    3  A    between atoms: C6_7  and  C9_11
REMARK    4  A    between atoms: C7_8  and  O2_9
REMARK    5  A    between atoms: O2_9  and  C8_10
REMARK    6  A    between atoms: C13_16  and  O8_27
REMARK    7  A    between atoms: C14_17  and  O7_25
REMARK    8  A    between atoms: C15_18  and  O6_24
REMARK    9  A    between atoms: C16_19  and  O5_22
REMARK   10  A    between atoms: O5_22  and  C18_23
REMARK   11  A    between atoms: O7_25  and  C19_26
REMARK                            x       y       z     vdW  Elec       q    Type
REMARK                         _______ _______ _______ _____ _____    ______ ____
ROOT
ATOM      1  C9  UNL     1      48.820   9.108  11.800  0.00  0.00    +0.143 A 
ATOM      2  C10 UNL     1      48.056   9.969  12.480  0.00  0.00    +0.098 A 
ATOM      3  C11 UNL     1      46.594   9.934  12.303  0.00  0.00    +0.197 A 
ATOM      4  O3  UNL     1      45.908  10.737  12.919  0.00  0.00    -0.287 OA
ATOM      5  C12 UNL     1      46.062   8.906  11.375  0.00  0.00    +0.113 A 
ATOM      6  C13 UNL     1      44.694   8.761  11.107  0.00  0.00    +0.177 A 
ATOM      7  C14 UNL     1      44.215   7.794  10.203  0.00  0.00    +0.208 A 
ATOM      8  C15 UNL     1      45.139   6.959   9.576  0.00  0.00    +0.209 A 
ATOM      9  C16 UNL     1      46.512   7.069   9.860  0.00  0.00    +0.209 A 
ATOM     10  C17 UNL     1      46.975   8.059  10.737  0.00  0.00    +0.188 A 
ATOM     11  O4  UNL     1      48.333   8.175  10.909  0.00  0.00    -0.451 OA
ENDROOT
BRANCH   1  16
ATOM     12  C2  UNL     1      52.533   9.792  11.196  0.00  0.00    +0.162 A 
ATOM     13  C3  UNL     1      53.088   9.034  12.230  0.00  0.00    +0.049 A 
ATOM     14  C4  UNL     1      52.263   8.325  13.106  0.00  0.00    +0.004 A 
ATOM     15  C5  UNL     1      50.878   8.361  12.953  0.00  0.00    +0.015 A 
ATOM     16  C6  UNL     1      50.290   9.110  11.922  0.00  0.00    +0.063 A 
ATOM     17  C7  UNL     1      51.131   9.848  11.066  0.00  0.00    +0.172 A 
BRANCH  12  19
ATOM     18  C1  UNL     1      54.012   9.780   9.325  0.00  0.00    +0.277 C 
ATOM     19  O1  UNL     1      53.258  10.511  10.282  0.00  0.00    -0.491 OA
ENDBRANCH  12  19
BRANCH  17  20
ATOM     20  O2  UNL     1      50.567  10.586  10.049  0.00  0.00    -0.491 OA
ATOM     21  C8  UNL     1      50.705  11.982  10.312  0.00  0.00    +0.277 C 
ENDBRANCH  17  20
ENDBRANCH   1  16
BRANCH   9  22
ATOM     22  O5  UNL     1      47.314   6.186   9.170  0.00  0.00    -0.488 OA
ATOM     23  C18 UNL     1      47.726   5.047   9.927  0.00  0.00    +0.277 C 
ENDBRANCH   9  22
BRANCH   8  24
ATOM     24  O6  UNL     1      44.758   6.001   8.672  0.00  0.00    -0.501 OA
ATOM     25  H14 UNL     1      45.231   6.213   7.843  0.00  0.00    +0.292 HD
ENDBRANCH   8  24
BRANCH   7  26
ATOM     26  O7  UNL     1      42.850   7.814  10.059  0.00  0.00    -0.488 OA
ATOM     27  C19 UNL     1      42.093   6.789  10.689  0.00  0.00    +0.277 C 
ENDBRANCH   7  26
BRANCH   6  28
ATOM     28  O8  UNL     1      43.767   9.570  11.716  0.00  0.00    -0.503 OA
ATOM     29  H18 UNL     1      42.894   9.293  11.375  0.00  0.00    +0.292 HD
ENDBRANCH   6  28
TORSDOF 7
ENDMDL
MODEL 7
REMARK VINA RESULT:    -6.875      1.302      3.224
REMARK INTER + INTRA:          -9.771
REMARK INTER:                  -9.578
REMARK INTRA:                  -0.194
REMARK UNBOUND:                -0.485
REMARK  Name = data/mahkota_dewa_dn/results/docking/ligands/pdb/Swertianin.pdb
REMARK  11 active torsions:
REMARK  status: ('A' for Active; 'I' for Inactive)
REMARK    1  A    between atoms: C1_1  and  O1_2
REMARK    2  A    between atoms: O1_2  and  C2_3
REMARK    3  A    between atoms: C6_7  and  C9_11
REMARK    4  A    between atoms: C7_8  and  O2_9
REMARK    5  A    between atoms: O2_9  and  C8_10
REMARK    6  A    between atoms: C13_16  and  O8_27
REMARK    7  A    between atoms: C14_17  and  O7_25
REMARK    8  A    between atoms: C15_18  and  O6_24
REMARK    9  A    between atoms: C16_19  and  O5_22
REMARK   10  A    between atoms: O5_22  and  C18_23
REMARK   11  A    between atoms: O7_25  and  C19_26
REMARK                            x       y       z     vdW  Elec       q    Type
REMARK                         _______ _______ _______ _____ _____    ______ ____
ROOT
ATOM      1  C9  UNL     1      46.332   8.200  12.101  0.00  0.00    +0.143 A 
ATOM      2  C10 UNL     1      46.268   8.418  13.419  0.00  0.00    +0.098 A 
ATOM      3  C11 UNL     1      44.952   8.558  14.065  0.00  0.00    +0.197 A 
ATOM      4  O3  UNL     1      44.908   8.773  15.269  0.00  0.00    -0.287 OA
ATOM      5  C12 UNL     1      43.764   8.423  13.188  0.00  0.00    +0.113 A 
ATOM      6  C13 UNL     1      42.451   8.538  13.666  0.00  0.00    +0.177 A 
ATOM      7  C14 UNL     1      41.339   8.430  12.809  0.00  0.00    +0.208 A 
ATOM      8  C15 UNL     1      41.568   8.191  11.455  0.00  0.00    +0.209 A 
ATOM      9  C16 UNL     1      42.878   8.039  10.965  0.00  0.00    +0.209 A 
ATOM     10  C17 UNL     1      43.975   8.182  11.826  0.00  0.00    +0.188 A 
ATOM     11  O4  UNL     1      45.231   8.110  11.276  0.00  0.00    -0.451 OA
ENDROOT
BRANCH   1  16
ATOM     12  C2  UNL     1      49.686   9.002  10.450  0.00  0.00    +0.162 A 
ATOM     13  C3  UNL     1      50.058   7.723  10.028  0.00  0.00    +0.049 A 
ATOM     14  C4  UNL     1      49.232   6.627  10.288  0.00  0.00    +0.004 A 
ATOM     15  C5  UNL     1      48.025   6.800  10.965  0.00  0.00    +0.015 A 
ATOM     16  C6  UNL     1      47.622   8.072  11.397  0.00  0.00    +0.063 A 
ATOM     17  C7  UNL     1      48.479   9.164  11.160  0.00  0.00    +0.172 A 
BRANCH  12  19
ATOM     18  C1  UNL     1      51.833  10.039  10.380  0.00  0.00    +0.277 C 
ATOM     19  O1  UNL     1      50.422  10.138  10.234  0.00  0.00    -0.491 OA
ENDBRANCH  12  19
BRANCH  17  20
ATOM     20  O2  UNL     1      48.095  10.419  11.578  0.00  0.00    -0.491 OA
ATOM     21  C8  UNL     1      48.928  10.863  12.648  0.00  0.00    +0.277 C 
ENDBRANCH  17  20
ENDBRANCH   1  16
BRANCH   9  22
ATOM     22  O5  UNL     1      42.962   7.810   9.609  0.00  0.00    -0.488 OA
ATOM     23  C18 UNL     1      43.316   6.472   9.257  0.00  0.00    +0.277 C 
ENDBRANCH   9  22
BRANCH   8  24
ATOM     24  O6  UNL     1      40.543   8.087  10.550  0.00  0.00    -0.501 OA
ATOM     25  H14 UNL     1      39.729   7.977  11.080  0.00  0.00    +0.292 HD
ENDBRANCH   8  24
BRANCH   7  26
ATOM     26  O7  UNL     1      40.138   8.586  13.455  0.00  0.00    -0.488 OA
ATOM     27  C19 UNL     1      39.340   7.431  13.677  0.00  0.00    +0.277 C 
ENDBRANCH   7  26
BRANCH   6  28
ATOM     28  O8  UNL     1      42.203   8.770  14.996  0.00  0.00    -0.503 OA
ATOM     29  H18 UNL     1      41.378   9.291  15.035  0.00  0.00    +0.292 HD
ENDBRANCH   6  28
TORSDOF 7
ENDMDL
MODEL 8
REMARK VINA RESULT:    -6.705      1.873      6.836
REMARK INTER + INTRA:          -9.542
REMARK INTER:                  -9.678
REMARK INTRA:                   0.136
REMARK UNBOUND:                -0.485
REMARK  Name = data/mahkota_dewa_dn/results/docking/ligands/pdb/Swertianin.pdb
REMARK  11 active torsions:
REMARK  status: ('A' for Active; 'I' for Inactive)
REMARK    1  A    between atoms: C1_1  and  O1_2
REMARK    2  A    between atoms: O1_2  and  C2_3
REMARK    3  A    between atoms: C6_7  and  C9_11
REMARK    4  A    between atoms: C7_8  and  O2_9
REMARK    5  A    between atoms: O2_9  and  C8_10
REMARK    6  A    between atoms: C13_16  and  O8_27
REMARK    7  A    between atoms: C14_17  and  O7_25
REMARK    8  A    between atoms: C15_18  and  O6_24
REMARK    9  A    between atoms: C16_19  and  O5_22
REMARK   10  A    between atoms: O5_22  and  C18_23
REMARK   11  A    between atoms: O7_25  and  C19_26
REMARK                            x       y       z     vdW  Elec       q    Type
REMARK                         _______ _______ _______ _____ _____    ______ ____
ROOT
ATOM      1  C9  UNL     1      43.756   6.779  10.608  0.00  0.00    +0.143 A 
ATOM      2  C10 UNL     1      44.318   6.224   9.529  0.00  0.00    +0.098 A 
ATOM      3  C11 UNL     1      45.659   6.662   9.107  0.00  0.00    +0.197 A 
ATOM      4  O3  UNL     1      46.155   6.158   8.109  0.00  0.00    -0.287 OA
ATOM      5  C12 UNL     1      46.313   7.699   9.942  0.00  0.00    +0.113 A 
ATOM      6  C13 UNL     1      47.585   8.213   9.656  0.00  0.00    +0.177 A 
ATOM      7  C14 UNL     1      48.175   9.215  10.450  0.00  0.00    +0.208 A 
ATOM      8  C15 UNL     1      47.465   9.688  11.553  0.00  0.00    +0.209 A 
ATOM      9  C16 UNL     1      46.202   9.159  11.873  0.00  0.00    +0.209 A 
ATOM     10  C17 UNL     1      45.616   8.186  11.054  0.00  0.00    +0.188 A 
ATOM     11  O4  UNL     1      44.345   7.770  11.367  0.00  0.00    -0.451 OA
ENDROOT
BRANCH   1  16
ATOM     12  C2  UNL     1      40.259   6.874  12.150  0.00  0.00    +0.162 A 
ATOM     13  C3  UNL     1      39.858   5.556  11.919  0.00  0.00    +0.049 A 
ATOM     14  C4  UNL     1      40.712   4.664  11.266  0.00  0.00    +0.004 A 
ATOM     15  C5  UNL     1      41.975   5.078  10.846  0.00  0.00    +0.015 A 
ATOM     16  C6  UNL     1      42.408   6.395  11.067  0.00  0.00    +0.063 A 
ATOM     17  C7  UNL     1      41.525   7.294  11.695  0.00  0.00    +0.172 A 
BRANCH  12  19
ATOM     18  C1  UNL     1      38.931   7.461  14.043  0.00  0.00    +0.277 C 
ATOM     19  O1  UNL     1      39.497   7.818  12.789  0.00  0.00    -0.491 OA
ENDBRANCH  12  19
BRANCH  17  20
ATOM     20  O2  UNL     1      41.937   8.589  11.920  0.00  0.00    -0.491 OA
ATOM     21  C8  UNL     1      41.468   9.448  10.880  0.00  0.00    +0.277 C 
ENDBRANCH  17  20
ENDBRANCH   1  16
BRANCH   9  22
ATOM     22  O5  UNL     1      45.610   9.718  12.985  0.00  0.00    -0.488 OA
ATOM     23  C18 UNL     1      45.440   8.816  14.079  0.00  0.00    +0.277 C 
ENDBRANCH   9  22
BRANCH   8  24
ATOM     24  O6  UNL     1      47.960  10.672  12.369  0.00  0.00    -0.501 OA
ATOM     25  H14 UNL     1      48.915  10.486  12.464  0.00  0.00    +0.292 HD
ENDBRANCH   8  24
BRANCH   7  26
ATOM     26  O7  UNL     1      49.415   9.602  10.004  0.00  0.00    -0.488 OA
ATOM     27  C19 UNL     1      50.556   9.154  10.723  0.00  0.00    +0.277 C 
ENDBRANCH   7  26
BRANCH   6  28
ATOM     28  O8  UNL     1      48.303   7.758   8.577  0.00  0.00    -0.503 OA
ATOM     29  H18 UNL     1      47.688   7.215   8.047  0.00  0.00    +0.292 HD
ENDBRANCH   6  28
TORSDOF 7
ENDMDL
MODEL 9
REMARK VINA RESULT:    -6.640      3.154      6.481
REMARK INTER + INTRA:          -9.453
REMARK INTER:                  -9.724
REMARK INTRA:                   0.271
REMARK UNBOUND:                -0.485
REMARK  Name = data/mahkota_dewa_dn/results/docking/ligands/pdb/Swertianin.pdb
REMARK  11 active torsions:
REMARK  status: ('A' for Active; 'I' for Inactive)
REMARK    1  A    between atoms: C1_1  and  O1_2
REMARK    2  A    between atoms: O1_2  and  C2_3
REMARK    3  A    between atoms: C6_7  and  C9_11
REMARK    4  A    between atoms: C7_8  and  O2_9
REMARK    5  A    between atoms: O2_9  and  C8_10
REMARK    6  A    between atoms: C13_16  and  O8_27
REMARK    7  A    between atoms: C14_17  and  O7_25
REMARK    8  A    between atoms: C15_18  and  O6_24
REMARK    9  A    between atoms: C16_19  and  O5_22
REMARK   10  A    between atoms: O5_22  and  C18_23
REMARK   11  A    between atoms: O7_25  and  C19_26
REMARK                            x       y       z     vdW  Elec       q    Type
REMARK                         _______ _______ _______ _____ _____    ______ ____
ROOT
ATOM      1  C9  UNL     1      50.325  10.158  10.691  0.00  0.00    +0.143 A 
ATOM      2  C10 UNL     1      49.759  10.850  11.686  0.00  0.00    +0.098 A 
ATOM      3  C11 UNL     1      48.399  10.499  12.127  0.00  0.00    +0.197 A 
ATOM      4  O3  UNL     1      47.886  11.150  13.027  0.00  0.00    -0.287 OA
ATOM      5  C12 UNL     1      47.748   9.362  11.432  0.00  0.00    +0.113 A 
ATOM      6  C13 UNL     1      46.454   8.922  11.745  0.00  0.00    +0.177 A 
ATOM      7  C14 UNL     1      45.847   7.856  11.055  0.00  0.00    +0.208 A 
ATOM      8  C15 UNL     1      46.572   7.224  10.045  0.00  0.00    +0.209 A 
ATOM      9  C16 UNL     1      47.884   7.631   9.742  0.00  0.00    +0.209 A 
ATOM     10  C17 UNL     1      48.460   8.716  10.416  0.00  0.00    +0.188 A 
ATOM     11  O4  UNL     1      49.710   9.123  10.018  0.00  0.00    -0.451 OA
ENDROOT
BRANCH   1  16
ATOM     12  C2  UNL     1      53.375  12.037   9.355  0.00  0.00    +0.162 A 
ATOM     13  C3  UNL     1      54.278  10.978   9.237  0.00  0.00    +0.049 A 
ATOM     14  C4  UNL     1      53.896   9.683   9.596  0.00  0.00    +0.004 A 
ATOM     15  C5  UNL     1      52.607   9.434  10.068  0.00  0.00    +0.015 A 
ATOM     16  C6  UNL     1      51.677  10.476  10.194  0.00  0.00    +0.063 A 
ATOM     17  C7  UNL     1      52.085  11.783   9.862  0.00  0.00    +0.172 A 
BRANCH  12  19
ATOM     18  C1  UNL     1      53.364  13.745   7.690  0.00  0.00    +0.277 C 
ATOM     19  O1  UNL     1      53.653  13.337   9.020  0.00  0.00    -0.491 OA
ENDBRANCH  12  19
BRANCH  17  20
ATOM     20  O2  UNL     1      51.180  12.816   9.980  0.00  0.00    -0.491 OA
ATOM     21  C8  UNL     1      51.556  13.686  11.046  0.00  0.00    +0.277 C 
ENDBRANCH  17  20
ENDBRANCH   1  16
BRANCH   9  22
ATOM     22  O5  UNL     1      48.483   6.926   8.721  0.00  0.00    -0.488 OA
ATOM     23  C18 UNL     1      49.356   5.883   9.158  0.00  0.00    +0.277 C 
ENDBRANCH   9  22
BRANCH   8  24
ATOM     24  O6  UNL     1      46.050   6.187   9.314  0.00  0.00    -0.501 OA
ATOM     25  H14 UNL     1      46.144   5.392   9.874  0.00  0.00    +0.292 HD
ENDBRANCH   8  24
BRANCH   7  26
ATOM     26  O7  UNL     1      44.575   7.580  11.491  0.00  0.00    -0.488 OA
ATOM     27  C19 UNL     1      43.483   7.994  10.680  0.00  0.00    +0.277 C 
ENDBRANCH   7  26
BRANCH   6  28
ATOM     28  O8  UNL     1      45.725   9.527  12.739  0.00  0.00    -0.503 OA
ATOM     29  H18 UNL     1      45.471   8.820  13.363  0.00  0.00    +0.292 HD
ENDBRANCH   6  28
TORSDOF 7
ENDMDL
