MODEL 1
REMARK VINA RESULT:    -8.308      0.000      0.000
REMARK INTER + INTRA:         -13.582
REMARK INTER:                 -11.708
REMARK INTRA:                  -1.874
REMARK UNBOUND:                -1.874
REMARK  Name = data/mahkota_dewa_dn/results/docking/ligands/pdb/Matairesinol.pdb
REMARK  10 active torsions:
REMARK  status: ('A' for Active; 'I' for Inactive)
REMARK    1  A    between atoms: C1_1  and  O1_2
REMARK    2  A    between atoms: O1_2  and  C2_3
REMARK    3  A    between atoms: C3_4  and  O6_26
REMARK    4  A    between atoms: C6_7  and  C8_9
REMARK    5  A    between atoms: C8_9  and  C9_10
REMARK    6  A    between atoms: C12_15  and  C13_16
REMARK    7  A    between atoms: C13_16  and  C14_17
REMARK    8  A    between atoms: C16_19  and  O5_24
REMARK    9  A    between atoms: C17_20  and  O4_23
REMARK   10  A    between atoms: O5_24  and  C20_25
REMARK                            x       y       z     vdW  Elec       q    Type
REMARK                         _______ _______ _______ _____ _____    ______ ____
ROOT
ATOM      1  C9  UNL     1      45.235   8.832  13.223  0.00  0.00    +0.045 C 
ATOM      2  C10 UNL     1      46.645   8.879  12.667  0.00  0.00    +0.236 C 
ATOM      3  O2  UNL     1      46.850   7.604  12.060  0.00  0.00    -0.464 OA
ATOM      4  C11 UNL     1      45.641   7.058  11.736  0.00  0.00    +0.311 C 
ATOM      5  O3  UNL     1      45.513   5.997  11.148  0.00  0.00    -0.251 OA
ATOM      6  C12 UNL     1      44.519   7.967  12.180  0.00  0.00    +0.109 C 
ENDROOT
BRANCH   1   7
ATOM      7  C8  UNL     1      45.176   8.163  14.615  0.00  0.00    +0.043 C 
BRANCH   7  12
ATOM      8  C2  UNL     1      41.837   6.704  15.770  0.00  0.00    +0.162 A 
ATOM      9  C3  UNL     1      41.183   7.868  16.196  0.00  0.00    +0.158 A 
ATOM     10  C4  UNL     1      41.801   9.115  16.109  0.00  0.00    +0.049 A 
ATOM     11  C5  UNL     1      43.093   9.210  15.592  0.00  0.00    +0.007 A 
ATOM     12  C6  UNL     1      43.771   8.061  15.164  0.00  0.00    -0.043 A 
ATOM     13  C7  UNL     1      43.131   6.813  15.251  0.00  0.00    +0.053 A 
BRANCH   8  15
ATOM     14  C1  UNL     1      41.394   4.740  17.051  0.00  0.00    +0.277 C 
ATOM     15  O1  UNL     1      41.137   5.533  15.902  0.00  0.00    -0.491 OA
ENDBRANCH   8  15
BRANCH   9  16
ATOM     16  O6  UNL     1      39.915   7.774  16.706  0.00  0.00    -0.503 OA
ATOM     17  H22 UNL     1      39.341   7.340  16.057  0.00  0.00    +0.292 HD
ENDBRANCH   9  16
ENDBRANCH   7  12
ENDBRANCH   1   7
BRANCH   6  18
ATOM     18  C13 UNL     1      44.006   8.779  10.982  0.00  0.00    +0.050 C 
BRANCH  18  19
ATOM     19  C14 UNL     1      42.499   8.913  10.986  0.00  0.00    -0.043 A 
ATOM     20  C15 UNL     1      41.747   8.465  12.085  0.00  0.00    +0.053 A 
ATOM     21  C16 UNL     1      40.356   8.605  12.109  0.00  0.00    +0.162 A 
ATOM     22  C17 UNL     1      39.718   9.183  11.005  0.00  0.00    +0.158 A 
ATOM     23  C18 UNL     1      40.450   9.632   9.906  0.00  0.00    +0.049 A 
ATOM     24  C19 UNL     1      41.839   9.502   9.901  0.00  0.00    +0.007 A 
BRANCH  22  25
ATOM     25  O4  UNL     1      38.354   9.314  11.011  0.00  0.00    -0.503 OA
ATOM     26  H18 UNL     1      38.067   9.599  11.891  0.00  0.00    +0.292 HD
ENDBRANCH  22  25
BRANCH  21  27
ATOM     27  O5  UNL     1      39.547   8.202  13.140  0.00  0.00    -0.491 OA
ATOM     28  C20 UNL     1      39.225   6.819  13.202  0.00  0.00    +0.277 C 
ENDBRANCH  21  27
ENDBRANCH  18  19
ENDBRANCH   6  18
TORSDOF 8
ENDMDL
MODEL 2
REMARK VINA RESULT:    -8.105      1.443      4.640
REMARK INTER + INTRA:         -13.296
REMARK INTER:                 -11.793
REMARK INTRA:                  -1.503
REMARK UNBOUND:                -1.874
REMARK  Name = data/mahkota_dewa_dn/results/docking/ligands/pdb/Matairesinol.pdb
REMARK  10 active torsions:
REMARK  status: ('A' for Active; 'I' for Inactive)
REMARK    1  A    between atoms: C1_1  and  O1_2
REMARK    2  A    between atoms: O1_2  and  C2_3
REMARK    3  A    between atoms: C3_4  and  O6_26
REMARK    4  A    between atoms: C6_7  and  C8_9
REMARK    5  A    between atoms: C8_9  and  C9_10
REMARK    6  A    between atoms: C12_15  and  C13_16
REMARK    7  A    between atoms: C13_16  and  C14_17
REMARK    8  A    between atoms: C16_19  and  O5_24
REMARK    9  A    between atoms: C17_20  and  O4_23
REMARK   10  A    between atoms: O5_24  and  C20_25
REMARK                            x       y       z     vdW  Elec       q    Type
REMARK                         _______ _______ _______ _____ _____    ______ ____
ROOT
ATOM      1  C9  UNL     1      44.507   6.836  11.016  0.00  0.00    +0.045 C 
ATOM      2  C10 UNL     1      45.940   6.561  10.603  0.00  0.00    +0.236 C 
ATOM      3  O2  UNL     1      46.595   7.827  10.664  0.00  0.00    -0.464 OA
ATOM      4  C11 UNL     1      45.917   8.646  11.521  0.00  0.00    +0.311 C 
ATOM      5  O3  UNL     1      46.286   9.771  11.816  0.00  0.00    -0.251 OA
ATOM      6  C12 UNL     1      44.691   7.946  12.056  0.00  0.00    +0.109 C 
ENDROOT
BRANCH   1   7
ATOM      7  C8  UNL     1      43.642   7.338   9.836  0.00  0.00    +0.043 C 
BRANCH   7  12
ATOM      8  C2  UNL     1      40.257   7.390  11.609  0.00  0.00    +0.162 A 
ATOM      9  C3  UNL     1      39.694   8.546  11.052  0.00  0.00    +0.158 A 
ATOM     10  C4  UNL     1      40.389   9.303  10.109  0.00  0.00    +0.049 A 
ATOM     11  C5  UNL     1      41.666   8.907   9.712  0.00  0.00    +0.007 A 
ATOM     12  C6  UNL     1      42.253   7.759  10.257  0.00  0.00    -0.043 A 
ATOM     13  C7  UNL     1      41.538   7.003  11.202  0.00  0.00    +0.053 A 
BRANCH   8  15
ATOM     14  C1  UNL     1      40.080   5.630  13.211  0.00  0.00    +0.277 C 
ATOM     15  O1  UNL     1      39.488   6.724  12.527  0.00  0.00    -0.491 OA
ENDBRANCH   8  15
BRANCH   9  16
ATOM     16  O6  UNL     1      38.441   8.936  11.444  0.00  0.00    -0.503 OA
ATOM     17  H22 UNL     1      38.100   8.304  12.094  0.00  0.00    +0.292 HD
ENDBRANCH   9  16
ENDBRANCH   7  12
ENDBRANCH   1   7
BRANCH   6  18
ATOM     18  C13 UNL     1      44.978   7.401  13.464  0.00  0.00    +0.050 C 
BRANCH  18  19
ATOM     19  C14 UNL     1      44.193   8.133  14.530  0.00  0.00    -0.043 A 
ATOM     20  C15 UNL     1      42.813   7.913  14.675  0.00  0.00    +0.053 A 
ATOM     21  C16 UNL     1      42.082   8.566  15.672  0.00  0.00    +0.162 A 
ATOM     22  C17 UNL     1      42.746   9.464  16.516  0.00  0.00    +0.158 A 
ATOM     23  C18 UNL     1      44.116   9.693  16.385  0.00  0.00    +0.049 A 
ATOM     24  C19 UNL     1      44.838   9.024  15.397  0.00  0.00    +0.007 A 
BRANCH  22  25
ATOM     25  O4  UNL     1      42.039  10.119  17.489  0.00  0.00    -0.503 OA
ATOM     26  H18 UNL     1      42.600  10.804  17.883  0.00  0.00    +0.292 HD
ENDBRANCH  22  25
BRANCH  21  27
ATOM     27  O5  UNL     1      40.738   8.406  15.887  0.00  0.00    -0.491 OA
ATOM     28  C20 UNL     1      40.323   7.193  16.501  0.00  0.00    +0.277 C 
ENDBRANCH  21  27
ENDBRANCH  18  19
ENDBRANCH   6  18
TORSDOF 8
ENDMDL
MODEL 3
REMARK VINA RESULT:    -7.967      1.921      4.703
REMARK INTER + INTRA:         -13.102
REMARK INTER:                 -11.034
REMARK INTRA:                  -2.067
REMARK UNBOUND:                -1.874
REMARK  Name = data/mahkota_dewa_dn/results/docking/ligands/pdb/Matairesinol.pdb
REMARK  10 active torsions:
REMARK  status: ('A' for Active; 'I' for Inactive)
REMARK    1  A    between atoms: C1_1  and  O1_2
REMARK    2  A    between atoms: O1_2  and  C2_3
REMARK    3  A    between atoms: C3_4  and  O6_26
REMARK    4  A    between atoms: C6_7  and  C8_9
REMARK    5  A    between atoms: C8_9  and  C9_10
REMARK    6  A    between atoms: C12_15  and  C13_16
REMARK    7  A    between atoms: C13_16  and  C14_17
REMARK    8  A    between atoms: C16_19  and  O5_24
REMARK    9  A    between atoms: C17_20  and  O4_23
REMARK   10  A    between atoms: O5_24  and  C20_25
REMARK                            x       y       z     vdW  Elec       q    Type
REMARK                         _______ _______ _______ _____ _____    ______ ____
ROOT
ATOM      1  C9  UNL     1      45.024   5.930  10.767  0.00  0.00    +0.045 C 
ATOM      2  C10 UNL     1      46.270   5.085  10.585  0.00  0.00    +0.236 C 
ATOM      3  O2  UNL     1      47.105   5.835   9.704  0.00  0.00    -0.464 OA
ATOM      4  C11 UNL     1      46.768   7.157   9.779  0.00  0.00    +0.311 C 
ATOM      5  O3  UNL     1      47.358   8.040   9.179  0.00  0.00    -0.251 OA
ATOM      6  C12 UNL     1      45.603   7.349  10.720  0.00  0.00    +0.109 C 
ENDROOT
BRANCH   1   7
ATOM      7  C8  UNL     1      44.002   5.724   9.626  0.00  0.00    +0.043 C 
BRANCH   7  12
ATOM      8  C2  UNL     1      40.700   6.814  11.212  0.00  0.00    +0.162 A 
ATOM      9  C3  UNL     1      40.297   7.805  10.308  0.00  0.00    +0.158 A 
ATOM     10  C4  UNL     1      41.072   8.121   9.192  0.00  0.00    +0.049 A 
ATOM     11  C5  UNL     1      42.270   7.442   8.970  0.00  0.00    +0.007 A 
ATOM     12  C6  UNL     1      42.698   6.450   9.861  0.00  0.00    -0.043 A 
ATOM     13  C7  UNL     1      41.903   6.139  10.977  0.00  0.00    +0.053 A 
BRANCH   8  15
ATOM     14  C1  UNL     1      40.363   5.802  13.347  0.00  0.00    +0.277 C 
ATOM     15  O1  UNL     1      39.864   6.586  12.274  0.00  0.00    -0.491 OA
ENDBRANCH   8  15
BRANCH   9  16
ATOM     16  O6  UNL     1      39.122   8.474  10.529  0.00  0.00    -0.503 OA
ATOM     17  H22 UNL     1      39.236   9.406  10.291  0.00  0.00    +0.292 HD
ENDBRANCH   9  16
ENDBRANCH   7  12
ENDBRANCH   1   7
BRANCH   6  18
ATOM     18  C13 UNL     1      46.115   7.830  12.086  0.00  0.00    +0.050 C 
BRANCH  18  19
ATOM     19  C14 UNL     1      45.002   7.946  13.104  0.00  0.00    -0.043 A 
ATOM     20  C15 UNL     1      43.821   8.641  12.792  0.00  0.00    +0.053 A 
ATOM     21  C16 UNL     1      42.776   8.735  13.718  0.00  0.00    +0.162 A 
ATOM     22  C17 UNL     1      42.935   8.139  14.975  0.00  0.00    +0.158 A 
ATOM     23  C18 UNL     1      44.101   7.446  15.300  0.00  0.00    +0.049 A 
ATOM     24  C19 UNL     1      45.129   7.345  14.362  0.00  0.00    +0.007 A 
BRANCH  22  25
ATOM     25  O4  UNL     1      41.924   8.235  15.895  0.00  0.00    -0.503 OA
ATOM     26  H18 UNL     1      41.211   7.628  15.646  0.00  0.00    +0.292 HD
ENDBRANCH  22  25
BRANCH  21  27
ATOM     27  O5  UNL     1      41.592   9.387  13.496  0.00  0.00    -0.491 OA
ATOM     28  C20 UNL     1      41.542  10.270  12.383  0.00  0.00    +0.277 C 
ENDBRANCH  21  27
ENDBRANCH  18  19
ENDBRANCH   6  18
TORSDOF 8
ENDMDL
MODEL 4
REMARK VINA RESULT:    -7.848      1.024      5.005
REMARK INTER + INTRA:         -12.934
REMARK INTER:                 -11.424
REMARK INTRA:                  -1.510
REMARK UNBOUND:                -1.874
REMARK  Name = data/mahkota_dewa_dn/results/docking/ligands/pdb/Matairesinol.pdb
REMARK  10 active torsions:
REMARK  status: ('A' for Active; 'I' for Inactive)
REMARK    1  A    between atoms: C1_1  and  O1_2
REMARK    2  A    between atoms: O1_2  and  C2_3
REMARK    3  A    between atoms: C3_4  and  O6_26
REMARK    4  A    between atoms: C6_7  and  C8_9
REMARK    5  A    between atoms: C8_9  and  C9_10
REMARK    6  A    between atoms: C12_15  and  C13_16
REMARK    7  A    between atoms: C13_16  and  C14_17
REMARK    8  A    between atoms: C16_19  and  O5_24
REMARK    9  A    between atoms: C17_20  and  O4_23
REMARK   10  A    between atoms: O5_24  and  C20_25
REMARK                            x       y       z     vdW  Elec       q    Type
REMARK                         _______ _______ _______ _____ _____    ______ ____
ROOT
ATOM      1  C9  UNL     1      44.536   7.903  12.014  0.00  0.00    +0.045 C 
ATOM      2  C10 UNL     1      45.699   7.009  11.632  0.00  0.00    +0.236 C 
ATOM      3  O2  UNL     1      46.837   7.869  11.600  0.00  0.00    -0.464 OA
ATOM      4  C11 UNL     1      46.602   8.959  12.389  0.00  0.00    +0.311 C 
ATOM      5  O3  UNL     1      47.427   9.833  12.599  0.00  0.00    -0.251 OA
ATOM      6  C12 UNL     1      45.209   8.896  12.969  0.00  0.00    +0.109 C 
ENDROOT
BRANCH   1   7
ATOM      7  C8  UNL     1      43.940   8.644  10.796  0.00  0.00    +0.043 C 
BRANCH   7  12
ATOM      8  C2  UNL     1      40.278   9.012   9.765  0.00  0.00    +0.162 A 
ATOM      9  C3  UNL     1      39.663   9.077  11.023  0.00  0.00    +0.158 A 
ATOM     10  C4  UNL     1      40.414   9.010  12.196  0.00  0.00    +0.049 A 
ATOM     11  C5  UNL     1      41.801   8.875  12.121  0.00  0.00    +0.007 A 
ATOM     12  C6  UNL     1      42.439   8.803  10.876  0.00  0.00    -0.043 A 
ATOM     13  C7  UNL     1      41.669   8.878   9.703  0.00  0.00    +0.053 A 
BRANCH   8  15
ATOM     14  C1  UNL     1      39.578   8.086   7.680  0.00  0.00    +0.277 C 
ATOM     15  O1  UNL     1      39.445   9.086   8.680  0.00  0.00    -0.491 OA
ENDBRANCH   8  15
BRANCH   9  16
ATOM     16  O6  UNL     1      38.302   9.207  11.096  0.00  0.00    -0.503 OA
ATOM     17  H22 UNL     1      37.957   8.584  11.753  0.00  0.00    +0.292 HD
ENDBRANCH   9  16
ENDBRANCH   7  12
ENDBRANCH   1   7
BRANCH   6  18
ATOM     18  C13 UNL     1      45.274   8.382  14.415  0.00  0.00    +0.050 C 
BRANCH  18  19
ATOM     19  C14 UNL     1      43.902   8.267  15.041  0.00  0.00    -0.043 A 
ATOM     20  C15 UNL     1      43.170   7.072  14.941  0.00  0.00    +0.053 A 
ATOM     21  C16 UNL     1      41.910   6.948  15.537  0.00  0.00    +0.162 A 
ATOM     22  C17 UNL     1      41.378   8.047  16.222  0.00  0.00    +0.158 A 
ATOM     23  C18 UNL     1      42.092   9.241  16.330  0.00  0.00    +0.049 A 
ATOM     24  C19 UNL     1      43.354   9.347  15.746  0.00  0.00    +0.007 A 
BRANCH  22  25
ATOM     25  O4  UNL     1      40.140   7.942  16.798  0.00  0.00    -0.503 OA
ATOM     26  H18 UNL     1      39.763   8.829  16.904  0.00  0.00    +0.292 HD
ENDBRANCH  22  25
BRANCH  21  27
ATOM     27  O5  UNL     1      41.133   5.821  15.493  0.00  0.00    -0.491 OA
ATOM     28  C20 UNL     1      40.344   5.628  14.326  0.00  0.00    +0.277 C 
ENDBRANCH  21  27
ENDBRANCH  18  19
ENDBRANCH   6  18
TORSDOF 8
ENDMDL
MODEL 5
REMARK VINA RESULT:    -7.775      1.967      4.646
REMARK INTER + INTRA:         -12.831
REMARK INTER:                 -11.169
REMARK INTRA:                  -1.662
REMARK UNBOUND:                -1.874
REMARK  Name = data/mahkota_dewa_dn/results/docking/ligands/pdb/Matairesinol.pdb
REMARK  10 active torsions:
REMARK  status: ('A' for Active; 'I' for Inactive)
REMARK    1  A    between atoms: C1_1  and  O1_2
REMARK    2  A    between atoms: O1_2  and  C2_3
REMARK    3  A    between atoms: C3_4  and  O6_26
REMARK    4  A    between atoms: C6_7  and  C8_9
REMARK    5  A    between atoms: C8_9  and  C9_10
REMARK    6  A    between atoms: C12_15  and  C13_16
REMARK    7  A    between atoms: C13_16  and  C14_17
REMARK    8  A    between atoms: C16_19  and  O5_24
REMARK    9  A    between atoms: C17_20  and  O4_23
REMARK   10  A    between atoms: O5_24  and  C20_25
REMARK                            x       y       z     vdW  Elec       q    Type
REMARK                         _______ _______ _______ _____ _____    ______ ____
ROOT
ATOM      1  C9  UNL     1      41.426   8.370  10.712  0.00  0.00    +0.045 C 
ATOM      2  C10 UNL     1      41.026   8.162   9.264  0.00  0.00    +0.236 C 
ATOM      3  O2  UNL     1      41.760   7.016   8.835  0.00  0.00    -0.464 OA
ATOM      4  C11 UNL     1      42.094   6.259   9.922  0.00  0.00    +0.311 C 
ATOM      5  O3  UNL     1      42.672   5.188   9.849  0.00  0.00    -0.251 OA
ATOM      6  C12 UNL     1      41.619   6.927  11.191  0.00  0.00    +0.109 C 
ENDROOT
BRANCH   1   7
ATOM      7  C8  UNL     1      42.744   9.166  10.848  0.00  0.00    +0.043 C 
BRANCH   7  12
ATOM      8  C2  UNL     1      43.583   8.805  14.559  0.00  0.00    +0.162 A 
ATOM      9  C3  UNL     1      44.872   8.263  14.479  0.00  0.00    +0.158 A 
ATOM     10  C4  UNL     1      45.476   8.019  13.245  0.00  0.00    +0.049 A 
ATOM     11  C5  UNL     1      44.787   8.317  12.069  0.00  0.00    +0.007 A 
ATOM     12  C6  UNL     1      43.495   8.855  12.122  0.00  0.00    -0.043 A 
ATOM     13  C7  UNL     1      42.903   9.101  13.373  0.00  0.00    +0.053 A 
BRANCH   8  15
ATOM     14  C1  UNL     1      41.887   9.753  15.946  0.00  0.00    +0.277 C 
ATOM     15  O1  UNL     1      43.086   9.002  15.821  0.00  0.00    -0.491 OA
ENDBRANCH   8  15
BRANCH   9  16
ATOM     16  O6  UNL     1      45.547   7.968  15.634  0.00  0.00    -0.503 OA
ATOM     17  H22 UNL     1      46.207   8.657  15.802  0.00  0.00    +0.292 HD
ENDBRANCH   9  16
ENDBRANCH   7  12
ENDBRANCH   1   7
BRANCH   6  18
ATOM     18  C13 UNL     1      40.310   6.274  11.659  0.00  0.00    +0.050 C 
BRANCH  18  19
ATOM     19  C14 UNL     1      40.058   6.495  13.134  0.00  0.00    -0.043 A 
ATOM     20  C15 UNL     1      40.952   5.989  14.093  0.00  0.00    +0.053 A 
ATOM     21  C16 UNL     1      40.741   6.208  15.459  0.00  0.00    +0.162 A 
ATOM     22  C17 UNL     1      39.607   6.925  15.859  0.00  0.00    +0.158 A 
ATOM     23  C18 UNL     1      38.710   7.433  14.919  0.00  0.00    +0.049 A 
ATOM     24  C19 UNL     1      38.939   7.223  13.559  0.00  0.00    +0.007 A 
BRANCH  22  25
ATOM     25  O4  UNL     1      39.382   7.134  17.194  0.00  0.00    -0.503 OA
ATOM     26  H18 UNL     1      40.121   7.641  17.564  0.00  0.00    +0.292 HD
ENDBRANCH  22  25
BRANCH  21  27
ATOM     27  O5  UNL     1      41.563   5.757  16.458  0.00  0.00    -0.491 OA
ATOM     28  C20 UNL     1      41.248   4.493  17.030  0.00  0.00    +0.277 C 
ENDBRANCH  21  27
ENDBRANCH  18  19
ENDBRANCH   6  18
TORSDOF 8
ENDMDL
MODEL 6
REMARK VINA RESULT:    -7.738      1.463      2.330
REMARK INTER + INTRA:         -12.779
REMARK INTER:                 -11.446
REMARK INTRA:                  -1.333
REMARK UNBOUND:                -1.874
REMARK  Name = data/mahkota_dewa_dn/results/docking/ligands/pdb/Matairesinol.pdb
REMARK  10 active torsions:
REMARK  status: ('A' for Active; 'I' for Inactive)
REMARK    1  A    between atoms: C1_1  and  O1_2
REMARK    2  A    between atoms: O1_2  and  C2_3
REMARK    3  A    between atoms: C3_4  and  O6_26
REMARK    4  A    between atoms: C6_7  and  C8_9
REMARK    5  A    between atoms: C8_9  and  C9_10
REMARK    6  A    between atoms: C12_15  and  C13_16
REMARK    7  A    between atoms: C13_16  and  C14_17
REMARK    8  A    between atoms: C16_19  and  O5_24
REMARK    9  A    between atoms: C17_20  and  O4_23
REMARK   10  A    between atoms: O5_24  and  C20_25
REMARK                            x       y       z     vdW  Elec       q    Type
REMARK                         _______ _______ _______ _____ _____    ______ ____
ROOT
ATOM      1  C9  UNL     1      45.194   7.982  12.215  0.00  0.00    +0.045 C 
ATOM      2  C10 UNL     1      46.533   7.851  11.516  0.00  0.00    +0.236 C 
ATOM      3  O2  UNL     1      46.514   6.559  10.911  0.00  0.00    -0.464 OA
ATOM      4  C11 UNL     1      45.219   6.168  10.721  0.00  0.00    +0.311 C 
ATOM      5  O3  UNL     1      44.899   5.131  10.166  0.00  0.00    -0.251 OA
ATOM      6  C12 UNL     1      44.271   7.212  11.264  0.00  0.00    +0.109 C 
ENDROOT
BRANCH   1   7
ATOM      7  C8  UNL     1      45.196   7.329  13.616  0.00  0.00    +0.043 C 
BRANCH   7  12
ATOM      8  C2  UNL     1      42.122   8.402  15.618  0.00  0.00    +0.162 A 
ATOM      9  C3  UNL     1      42.688   9.374  16.454  0.00  0.00    +0.158 A 
ATOM     10  C4  UNL     1      44.043   9.692  16.375  0.00  0.00    +0.049 A 
ATOM     11  C5  UNL     1      44.854   9.032  15.451  0.00  0.00    +0.007 A 
ATOM     12  C6  UNL     1      44.314   8.053  14.607  0.00  0.00    -0.043 A 
ATOM     13  C7  UNL     1      42.945   7.749  14.695  0.00  0.00    +0.053 A 
BRANCH   8  15
ATOM     14  C1  UNL     1      40.281   6.903  15.376  0.00  0.00    +0.277 C 
ATOM     15  O1  UNL     1      40.782   8.169  15.782  0.00  0.00    -0.491 OA
ENDBRANCH   8  15
BRANCH   9  16
ATOM     16  O6  UNL     1      41.892  10.020  17.363  0.00  0.00    -0.503 OA
ATOM     17  H22 UNL     1      40.981  10.038  17.032  0.00  0.00    +0.292 HD
ENDBRANCH   9  16
ENDBRANCH   7  12
ENDBRANCH   1   7
BRANCH   6  18
ATOM     18  C13 UNL     1      43.742   8.080  10.112  0.00  0.00    +0.050 C 
BRANCH  18  19
ATOM     19  C14 UNL     1      42.299   8.482  10.318  0.00  0.00    -0.043 A 
ATOM     20  C15 UNL     1      41.395   8.467   9.242  0.00  0.00    +0.053 A 
ATOM     21  C16 UNL     1      40.053   8.815   9.426  0.00  0.00    +0.162 A 
ATOM     22  C17 UNL     1      39.625   9.200  10.702  0.00  0.00    +0.158 A 
ATOM     23  C18 UNL     1      40.510   9.220  11.780  0.00  0.00    +0.049 A 
ATOM     24  C19 UNL     1      41.843   8.856  11.588  0.00  0.00    +0.007 A 
BRANCH  22  25
ATOM     25  O4  UNL     1      38.316   9.555  10.892  0.00  0.00    -0.503 OA
ATOM     26  H18 UNL     1      37.756   9.031  10.300  0.00  0.00    +0.292 HD
ENDBRANCH  22  25
BRANCH  21  27
ATOM     27  O5  UNL     1      39.105   8.823   8.436  0.00  0.00    -0.491 OA
ATOM     28  C20 UNL     1      39.382   8.051   7.274  0.00  0.00    +0.277 C 
ENDBRANCH  21  27
ENDBRANCH  18  19
ENDBRANCH   6  18
TORSDOF 8
ENDMDL
MODEL 7
REMARK VINA RESULT:    -7.734      1.707      6.224
REMARK INTER + INTRA:         -12.773
REMARK INTER:                 -11.115
REMARK INTRA:                  -1.658
REMARK UNBOUND:                -1.874
REMARK  Name = data/mahkota_dewa_dn/results/docking/ligands/pdb/Matairesinol.pdb
REMARK  10 active torsions:
REMARK  status: ('A' for Active; 'I' for Inactive)
REMARK    1  A    between atoms: C1_1  and  O1_2
REMARK    2  A    between atoms: O1_2  and  C2_3
REMARK    3  A    between atoms: C3_4  and  O6_26
REMARK    4  A    between atoms: C6_7  and  C8_9
REMARK    5  A    between atoms: C8_9  and  C9_10
REMARK    6  A    between atoms: C12_15  and  C13_16
REMARK    7  A    between atoms: C13_16  and  C14_17
REMARK    8  A    between atoms: C16_19  and  O5_24
REMARK    9  A    between atoms: C17_20  and  O4_23
REMARK   10  A    between atoms: O5_24  and  C20_25
REMARK                            x       y       z     vdW  Elec       q    Type
REMARK                         _______ _______ _______ _____ _____    ______ ____
ROOT
ATOM      1  C9  UNL     1      40.463   7.821  15.182  0.00  0.00    +0.045 C 
ATOM      2  C10 UNL     1      40.016   7.787  16.630  0.00  0.00    +0.236 C 
ATOM      3  O2  UNL     1      40.318   6.469  17.084  0.00  0.00    -0.464 OA
ATOM      4  C11 UNL     1      41.310   5.940  16.307  0.00  0.00    +0.311 C 
ATOM      5  O3  UNL     1      41.813   4.847  16.504  0.00  0.00    -0.251 OA
ATOM      6  C12 UNL     1      41.695   6.911  15.216  0.00  0.00    +0.109 C 
ENDROOT
BRANCH   1   7
ATOM      7  C8  UNL     1      39.393   7.249  14.224  0.00  0.00    +0.043 C 
BRANCH   7  12
ATOM      8  C2  UNL     1      40.434   7.979  10.619  0.00  0.00    +0.162 A 
ATOM      9  C3  UNL     1      40.865   6.708  10.215  0.00  0.00    +0.158 A 
ATOM     10  C4  UNL     1      40.817   5.620  11.086  0.00  0.00    +0.049 A 
ATOM     11  C5  UNL     1      40.335   5.796  12.384  0.00  0.00    +0.007 A 
ATOM     12  C6  UNL     1      39.903   7.057  12.814  0.00  0.00    -0.043 A 
ATOM     13  C7  UNL     1      39.952   8.141  11.922  0.00  0.00    +0.053 A 
BRANCH   8  15
ATOM     14  C1  UNL     1      39.321   9.430   9.086  0.00  0.00    +0.277 C 
ATOM     15  O1  UNL     1      40.526   8.975   9.683  0.00  0.00    -0.491 OA
ENDBRANCH   8  15
BRANCH   9  16
ATOM     16  O6  UNL     1      41.341   6.537   8.942  0.00  0.00    -0.503 OA
ATOM     17  H22 UNL     1      41.428   7.402   8.515  0.00  0.00    +0.292 HD
ENDBRANCH   9  16
ENDBRANCH   7  12
ENDBRANCH   1   7
BRANCH   6  18
ATOM     18  C13 UNL     1      42.977   7.657  15.617  0.00  0.00    +0.050 C 
BRANCH  18  19
ATOM     19  C14 UNL     1      43.976   7.724  14.483  0.00  0.00    -0.043 A 
ATOM     20  C15 UNL     1      43.590   7.395  13.173  0.00  0.00    +0.053 A 
ATOM     21  C16 UNL     1      44.500   7.476  12.113  0.00  0.00    +0.162 A 
ATOM     22  C17 UNL     1      45.815   7.874  12.384  0.00  0.00    +0.158 A 
ATOM     23  C18 UNL     1      46.213   8.204  13.679  0.00  0.00    +0.049 A 
ATOM     24  C19 UNL     1      45.293   8.135  14.725  0.00  0.00    +0.007 A 
BRANCH  22  25
ATOM     25  O4  UNL     1      46.718   7.945  11.357  0.00  0.00    -0.503 OA
ATOM     26  H18 UNL     1      46.824   8.871  11.090  0.00  0.00    +0.292 HD
ENDBRANCH  22  25
BRANCH  21  27
ATOM     27  O5  UNL     1      44.208   7.179  10.808  0.00  0.00    -0.491 OA
ATOM     28  C20 UNL     1      44.490   5.857  10.370  0.00  0.00    +0.277 C 
ENDBRANCH  21  27
ENDBRANCH  18  19
ENDBRANCH   6  18
TORSDOF 8
ENDMDL
MODEL 8
REMARK VINA RESULT:    -7.720      1.855      2.854
REMARK INTER + INTRA:         -12.754
REMARK INTER:                 -10.709
REMARK INTRA:                  -2.045
REMARK UNBOUND:                -1.874
REMARK  Name = data/mahkota_dewa_dn/results/docking/ligands/pdb/Matairesinol.pdb
REMARK  10 active torsions:
REMARK  status: ('A' for Active; 'I' for Inactive)
REMARK    1  A    between atoms: C1_1  and  O1_2
REMARK    2  A    between atoms: O1_2  and  C2_3
REMARK    3  A    between atoms: C3_4  and  O6_26
REMARK    4  A    between atoms: C6_7  and  C8_9
REMARK    5  A    between atoms: C8_9  and  C9_10
REMARK    6  A    between atoms: C12_15  and  C13_16
REMARK    7  A    between atoms: C13_16  and  C14_17
REMARK    8  A    between atoms: C16_19  and  O5_24
REMARK    9  A    between atoms: C17_20  and  O4_23
REMARK   10  A    between atoms: O5_24  and  C20_25
REMARK                            x       y       z     vdW  Elec       q    Type
REMARK                         _______ _______ _______ _____ _____    ______ ____
ROOT
ATOM      1  C9  UNL     1      45.537   7.628  10.726  0.00  0.00    +0.045 C 
ATOM      2  C10 UNL     1      46.682   7.668   9.733  0.00  0.00    +0.236 C 
ATOM      3  O2  UNL     1      47.278   6.373   9.796  0.00  0.00    -0.464 OA
ATOM      4  C11 UNL     1      46.359   5.476  10.262  0.00  0.00    +0.311 C 
ATOM      5  O3  UNL     1      46.573   4.279  10.362  0.00  0.00    -0.251 OA
ATOM      6  C12 UNL     1      45.063   6.176  10.594  0.00  0.00    +0.109 C 
ENDROOT
BRANCH   1   7
ATOM      7  C8  UNL     1      46.003   7.916  12.171  0.00  0.00    +0.043 C 
BRANCH   7  12
ATOM      8  C2  UNL     1      42.613   8.699  13.753  0.00  0.00    +0.162 A 
ATOM      9  C3  UNL     1      42.747   8.041  14.983  0.00  0.00    +0.158 A 
ATOM     10  C4  UNL     1      43.916   7.356  15.311  0.00  0.00    +0.049 A 
ATOM     11  C5  UNL     1      44.973   7.320  14.401  0.00  0.00    +0.007 A 
ATOM     12  C6  UNL     1      44.863   7.965  13.162  0.00  0.00    -0.043 A 
ATOM     13  C7  UNL     1      43.680   8.658  12.850  0.00  0.00    +0.053 A 
BRANCH   8  15
ATOM     14  C1  UNL     1      41.375  10.307  12.497  0.00  0.00    +0.277 C 
ATOM     15  O1  UNL     1      41.422   9.340  13.535  0.00  0.00    -0.491 OA
ENDBRANCH   8  15
BRANCH   9  16
ATOM     16  O6  UNL     1      41.708   8.074  15.875  0.00  0.00    -0.503 OA
ATOM     17  H22 UNL     1      42.054   7.957  16.772  0.00  0.00    +0.292 HD
ENDBRANCH   9  16
ENDBRANCH   7  12
ENDBRANCH   1   7
BRANCH   6  18
ATOM     18  C13 UNL     1      44.060   5.979   9.447  0.00  0.00    +0.050 C 
BRANCH  18  19
ATOM     19  C14 UNL     1      42.744   6.675   9.714  0.00  0.00    -0.043 A 
ATOM     20  C15 UNL     1      41.922   6.262  10.776  0.00  0.00    +0.053 A 
ATOM     21  C16 UNL     1      40.714   6.914  11.046  0.00  0.00    +0.162 A 
ATOM     22  C17 UNL     1      40.325   7.978  10.224  0.00  0.00    +0.158 A 
ATOM     23  C18 UNL     1      41.130   8.400   9.165  0.00  0.00    +0.049 A 
ATOM     24  C19 UNL     1      42.340   7.753   8.916  0.00  0.00    +0.007 A 
BRANCH  22  25
ATOM     25  O4  UNL     1      39.138   8.616  10.470  0.00  0.00    -0.503 OA
ATOM     26  H18 UNL     1      38.892   8.483  11.398  0.00  0.00    +0.292 HD
ENDBRANCH  22  25
BRANCH  21  27
ATOM     27  O5  UNL     1      39.856   6.581  12.061  0.00  0.00    -0.491 OA
ATOM     28  C20 UNL     1      40.374   5.756  13.097  0.00  0.00    +0.277 C 
ENDBRANCH  21  27
ENDBRANCH  18  19
ENDBRANCH   6  18
TORSDOF 8
ENDMDL
MODEL 9
REMARK VINA RESULT:    -7.481      2.039      5.163
REMARK INTER + INTRA:         -12.417
REMARK INTER:                 -10.816
REMARK INTRA:                  -1.602
REMARK UNBOUND:                -1.874
REMARK  Name = data/mahkota_dewa_dn/results/docking/ligands/pdb/Matairesinol.pdb
REMARK  10 active torsions:
REMARK  status: ('A' for Active; 'I' for Inactive)
REMARK    1  A    between atoms: C1_1  and  O1_2
REMARK    2  A    between atoms: O1_2  and  C2_3
REMARK    3  A    between atoms: C3_4  and  O6_26
REMARK    4  A    between atoms: C6_7  and  C8_9
REMARK    5  A    between atoms: C8_9  and  C9_10
REMARK    6  A    between atoms: C12_15  and  C13_16
REMARK    7  A    between atoms: C13_16  and  C14_17
REMARK    8  A    between atoms: C16_19  and  O5_24
REMARK    9  A    between atoms: C17_20  and  O4_23
REMARK   10  A    between atoms: O5_24  and  C20_25
REMARK                            x       y       z     vdW  Elec       q    Type
REMARK                         _______ _______ _______ _____ _____    ______ ____
ROOT
ATOM      1  C9  UNL     1      42.991   7.494  14.491  0.00  0.00    +0.045 C 
ATOM      2  C10 UNL     1      42.176   6.956  15.651  0.00  0.00    +0.236 C 
ATOM      3  O2  UNL     1      41.938   8.083  16.494  0.00  0.00    -0.464 OA
ATOM      4  C11 UNL     1      42.034   9.228  15.756  0.00  0.00    +0.311 C 
ATOM      5  O3  UNL     1      41.817  10.341  16.203  0.00  0.00    -0.251 OA
ATOM      6  C12 UNL     1      42.409   8.902  14.329  0.00  0.00    +0.109 C 
ENDROOT
BRANCH   1   7
ATOM      7  C8  UNL     1      44.500   7.566  14.817  0.00  0.00    +0.043 C 
BRANCH   7  12
ATOM      8  C2  UNL     1      45.717   7.431  11.196  0.00  0.00    +0.162 A 
ATOM      9  C3  UNL     1      46.947   8.092  11.315  0.00  0.00    +0.158 A 
ATOM     10  C4  UNL     1      47.391   8.572  12.546  0.00  0.00    +0.049 A 
ATOM     11  C5  UNL     1      46.600   8.396  13.682  0.00  0.00    +0.007 A 
ATOM     12  C6  UNL     1      45.364   7.744  13.589  0.00  0.00    -0.043 A 
ATOM     13  C7  UNL     1      44.933   7.260  12.342  0.00  0.00    +0.053 A 
BRANCH   8  15
ATOM     14  C1  UNL     1      45.179   5.609   9.752  0.00  0.00    +0.277 C 
ATOM     15  O1  UNL     1      45.379   7.002   9.939  0.00  0.00    -0.491 OA
ENDBRANCH   8  15
BRANCH   9  16
ATOM     16  O6  UNL     1      47.723   8.266  10.199  0.00  0.00    -0.503 OA
ATOM     17  H22 UNL     1      48.626   7.973  10.390  0.00  0.00    +0.292 HD
ENDBRANCH   9  16
ENDBRANCH   7  12
ENDBRANCH   1   7
BRANCH   6  18
ATOM     18  C13 UNL     1      41.153   8.930  13.445  0.00  0.00    +0.050 C 
BRANCH  18  19
ATOM     19  C14 UNL     1      41.426   8.412  12.050  0.00  0.00    -0.043 A 
ATOM     20  C15 UNL     1      41.431   7.031  11.791  0.00  0.00    +0.053 A 
ATOM     21  C16 UNL     1      41.659   6.542  10.500  0.00  0.00    +0.162 A 
ATOM     22  C17 UNL     1      41.904   7.456   9.468  0.00  0.00    +0.158 A 
ATOM     23  C18 UNL     1      41.902   8.830   9.708  0.00  0.00    +0.049 A 
ATOM     24  C19 UNL     1      41.657   9.306  10.997  0.00  0.00    +0.007 A 
BRANCH  22  25
ATOM     25  O4  UNL     1      42.141   6.988   8.202  0.00  0.00    -0.503 OA
ATOM     26  H18 UNL     1      41.332   7.074   7.676  0.00  0.00    +0.292 HD
ENDBRANCH  22  25
BRANCH  21  27
ATOM     27  O5  UNL     1      41.676   5.215  10.159  0.00  0.00    -0.491 OA
ATOM     28  C20 UNL     1      41.218   4.293  11.140  0.00  0.00    +0.277 C 
ENDBRANCH  21  27
ENDBRANCH  18  19
ENDBRANCH   6  18
TORSDOF 8
ENDMDL
