MODEL 1
REMARK VINA RESULT:    -8.498      0.000      0.000
REMARK INTER + INTRA:         -10.313
REMARK INTER:                  -9.988
REMARK INTRA:                  -0.324
REMARK UNBOUND:                -0.324
REMARK  Name = data/mahkota_dewa_dn/results/docking/ligands/pdb/Luteolin.pdb
REMARK  5 active torsions:
REMARK  status: ('A' for Active; 'I' for Inactive)
REMARK    1  A    between atoms: C3_3  and  O6_21
REMARK    2  A    between atoms: C4_4  and  O5_20
REMARK    3  A    between atoms: C6_6  and  C7_7
REMARK    4  A    between atoms: C11_12  and  O4_19
REMARK    5  A    between atoms: C13_14  and  O3_18
REMARK                            x       y       z     vdW  Elec       q    Type
REMARK                         _______ _______ _______ _____ _____    ______ ____
ROOT
ATOM      1  C7  UNL     1      43.700   7.793  12.880  0.00  0.00    +0.139 A 
ATOM      2  C8  UNL     1      44.349   8.515  13.805  0.00  0.00    +0.098 A 
ATOM      3  C9  UNL     1      43.653   8.868  15.050  0.00  0.00    +0.197 A 
ATOM      4  O1  UNL     1      44.196   9.535  15.924  0.00  0.00    -0.287 OA
ATOM      5  C10 UNL     1      42.275   8.392  15.204  0.00  0.00    +0.105 A 
ATOM      6  C11 UNL     1      41.523   8.672  16.351  0.00  0.00    +0.135 A 
ATOM      7  C12 UNL     1      40.217   8.203  16.466  0.00  0.00    +0.091 A 
ATOM      8  C13 UNL     1      39.670   7.455  15.426  0.00  0.00    +0.124 A 
ATOM      9  C14 UNL     1      40.408   7.170  14.280  0.00  0.00    +0.092 A 
ATOM     10  C15 UNL     1      41.716   7.642  14.171  0.00  0.00    +0.146 A 
ATOM     11  O2  UNL     1      42.399   7.333  13.021  0.00  0.00    -0.454 OA
ENDROOT
BRANCH   1  17
ATOM     12  C1  UNL     1      45.743   7.454  11.452  0.00  0.00    +0.015 A 
ATOM     13  C2  UNL     1      46.346   7.086  10.244  0.00  0.00    +0.050 A 
ATOM     14  C3  UNL     1      45.547   6.663   9.190  0.00  0.00    +0.158 A 
ATOM     15  C4  UNL     1      44.164   6.612   9.337  0.00  0.00    +0.159 A 
ATOM     16  C5  UNL     1      43.558   6.977  10.531  0.00  0.00    +0.060 A 
ATOM     17  C6  UNL     1      44.345   7.397  11.613  0.00  0.00    +0.021 A 
BRANCH  15  18
ATOM     18  O5  UNL     1      43.384   6.197   8.294  0.00  0.00    -0.503 OA
ATOM     19  H9  UNL     1      43.208   5.253   8.480  0.00  0.00    +0.292 HD
ENDBRANCH  15  18
BRANCH  14  20
ATOM     20  O6  UNL     1      46.074   6.290   7.986  0.00  0.00    -0.503 OA
ATOM     21  H10 UNL     1      45.341   6.157   7.360  0.00  0.00    +0.292 HD
ENDBRANCH  14  20
ENDBRANCH   1  17
BRANCH   8  22
ATOM     22  O3  UNL     1      38.396   6.975  15.492  0.00  0.00    -0.507 OA
ATOM     23  H7  UNL     1      37.868   7.563  16.059  0.00  0.00    +0.292 HD
ENDBRANCH   8  22
BRANCH   6  24
ATOM     24  O4  UNL     1      42.011   9.402  17.402  0.00  0.00    -0.506 OA
ATOM     25  H8  UNL     1      42.928   9.094  17.589  0.00  0.00    +0.292 HD
ENDBRANCH   6  24
TORSDOF 5
ENDMDL
MODEL 2
REMARK VINA RESULT:    -8.091     13.946     17.239
REMARK INTER + INTRA:          -9.834
REMARK INTER:                  -9.534
REMARK INTRA:                  -0.300
REMARK UNBOUND:                -0.324
REMARK  Name = data/mahkota_dewa_dn/results/docking/ligands/pdb/Luteolin.pdb
REMARK  5 active torsions:
REMARK  status: ('A' for Active; 'I' for Inactive)
REMARK    1  A    between atoms: C3_3  and  O6_21
REMARK    2  A    between atoms: C4_4  and  O5_20
REMARK    3  A    between atoms: C6_6  and  C7_7
REMARK    4  A    between atoms: C11_12  and  O4_19
REMARK    5  A    between atoms: C13_14  and  O3_18
REMARK                            x       y       z     vdW  Elec       q    Type
REMARK                         _______ _______ _______ _____ _____    ______ ____
ROOT
ATOM      1  C7  UNL     1      54.622  16.436   7.502  0.00  0.00    +0.139 A 
ATOM      2  C8  UNL     1      54.444  16.877   6.249  0.00  0.00    +0.098 A 
ATOM      3  C9  UNL     1      55.365  17.888   5.711  0.00  0.00    +0.197 A 
ATOM      4  O1  UNL     1      55.240  18.333   4.575  0.00  0.00    -0.287 OA
ATOM      5  C10 UNL     1      56.442  18.347   6.593  0.00  0.00    +0.105 A 
ATOM      6  C11 UNL     1      57.374  19.306   6.179  0.00  0.00    +0.135 A 
ATOM      7  C12 UNL     1      58.386  19.720   7.042  0.00  0.00    +0.091 A 
ATOM      8  C13 UNL     1      58.457  19.168   8.319  0.00  0.00    +0.124 A 
ATOM      9  C14 UNL     1      57.535  18.214   8.742  0.00  0.00    +0.092 A 
ATOM     10  C15 UNL     1      56.524  17.803   7.873  0.00  0.00    +0.146 A 
ATOM     11  O2  UNL     1      55.643  16.861   8.340  0.00  0.00    -0.454 OA
ENDROOT
BRANCH   1  17
ATOM     12  C1  UNL     1      53.371  14.257   7.386  0.00  0.00    +0.015 A 
ATOM     13  C2  UNL     1      52.524  13.299   7.955  0.00  0.00    +0.050 A 
ATOM     14  C3  UNL     1      52.039  13.502   9.240  0.00  0.00    +0.158 A 
ATOM     15  C4  UNL     1      52.390  14.647   9.948  0.00  0.00    +0.159 A 
ATOM     16  C5  UNL     1      53.228  15.604   9.390  0.00  0.00    +0.060 A 
ATOM     17  C6  UNL     1      53.738  15.416   8.098  0.00  0.00    +0.021 A 
BRANCH  15  18
ATOM     18  O5  UNL     1      51.906  14.841  11.211  0.00  0.00    -0.503 OA
ATOM     19  H9  UNL     1      52.675  15.167  11.721  0.00  0.00    +0.292 HD
ENDBRANCH  15  18
BRANCH  14  20
ATOM     20  O6  UNL     1      51.209  12.605   9.851  0.00  0.00    -0.503 OA
ATOM     21  H10 UNL     1      51.484  12.520  10.781  0.00  0.00    +0.292 HD
ENDBRANCH  14  20
ENDBRANCH   1  17
BRANCH   8  22
ATOM     22  O3  UNL     1      59.428  19.542   9.199  0.00  0.00    -0.507 OA
ATOM     23  H7  UNL     1      59.115  20.311   9.704  0.00  0.00    +0.292 HD
ENDBRANCH   8  22
BRANCH   6  24
ATOM     24  O4  UNL     1      57.351  19.879   4.936  0.00  0.00    -0.506 OA
ATOM     25  H8  UNL     1      56.851  20.726   4.999  0.00  0.00    +0.292 HD
ENDBRANCH   6  24
TORSDOF 5
ENDMDL
MODEL 3
REMARK VINA RESULT:    -8.059      0.702      1.488
REMARK INTER + INTRA:          -9.797
REMARK INTER:                  -9.491
REMARK INTRA:                  -0.306
REMARK UNBOUND:                -0.324
REMARK  Name = data/mahkota_dewa_dn/results/docking/ligands/pdb/Luteolin.pdb
REMARK  5 active torsions:
REMARK  status: ('A' for Active; 'I' for Inactive)
REMARK    1  A    between atoms: C3_3  and  O6_21
REMARK    2  A    between atoms: C4_4  and  O5_20
REMARK    3  A    between atoms: C6_6  and  C7_7
REMARK    4  A    between atoms: C11_12  and  O4_19
REMARK    5  A    between atoms: C13_14  and  O3_18
REMARK                            x       y       z     vdW  Elec       q    Type
REMARK                         _______ _______ _______ _____ _____    ______ ____
ROOT
ATOM      1  C7  UNL     1      43.750   7.745  12.619  0.00  0.00    +0.139 A 
ATOM      2  C8  UNL     1      44.419   8.426  13.561  0.00  0.00    +0.098 A 
ATOM      3  C9  UNL     1      43.737   8.757  14.820  0.00  0.00    +0.197 A 
ATOM      4  O1  UNL     1      44.299   9.388  15.709  0.00  0.00    -0.287 OA
ATOM      5  C10 UNL     1      42.351   8.303  14.969  0.00  0.00    +0.105 A 
ATOM      6  C11 UNL     1      41.612   8.564  16.129  0.00  0.00    +0.135 A 
ATOM      7  C12 UNL     1      40.297   8.117  16.238  0.00  0.00    +0.091 A 
ATOM      8  C13 UNL     1      39.731   7.410  15.181  0.00  0.00    +0.124 A 
ATOM      9  C14 UNL     1      40.456   7.145  14.023  0.00  0.00    +0.092 A 
ATOM     10  C15 UNL     1      41.772   7.595  13.918  0.00  0.00    +0.146 A 
ATOM     11  O2  UNL     1      42.442   7.306  12.756  0.00  0.00    -0.454 OA
ENDROOT
BRANCH   1  17
ATOM     12  C1  UNL     1      43.667   6.673  10.345  0.00  0.00    +0.015 A 
ATOM     13  C2  UNL     1      44.275   6.315   9.136  0.00  0.00    +0.050 A 
ATOM     14  C3  UNL     1      45.603   6.656   8.920  0.00  0.00    +0.158 A 
ATOM     15  C4  UNL     1      46.318   7.341   9.898  0.00  0.00    +0.159 A 
ATOM     16  C5  UNL     1      45.724   7.697  11.101  0.00  0.00    +0.060 A 
ATOM     17  C6  UNL     1      44.380   7.373  11.337  0.00  0.00    +0.021 A 
BRANCH  15  18
ATOM     18  O5  UNL     1      47.626   7.671   9.678  0.00  0.00    -0.503 OA
ATOM     19  H9  UNL     1      47.861   7.208   8.850  0.00  0.00    +0.292 HD
ENDBRANCH  15  18
BRANCH  14  20
ATOM     20  O6  UNL     1      46.253   6.337   7.761  0.00  0.00    -0.503 OA
ATOM     21  H10 UNL     1      47.003   5.758   7.982  0.00  0.00    +0.292 HD
ENDBRANCH  14  20
ENDBRANCH   1  17
BRANCH   8  22
ATOM     22  O3  UNL     1      38.447   6.953  15.242  0.00  0.00    -0.507 OA
ATOM     23  H7  UNL     1      37.869   7.581  14.777  0.00  0.00    +0.292 HD
ENDBRANCH   8  22
BRANCH   6  24
ATOM     24  O4  UNL     1      42.120   9.254  17.196  0.00  0.00    -0.506 OA
ATOM     25  H8  UNL     1      41.494   9.157  17.950  0.00  0.00    +0.292 HD
ENDBRANCH   6  24
TORSDOF 5
ENDMDL
MODEL 4
REMARK VINA RESULT:    -7.910      3.364      5.533
REMARK INTER + INTRA:          -9.622
REMARK INTER:                  -9.354
REMARK INTRA:                  -0.268
REMARK UNBOUND:                -0.324
REMARK  Name = data/mahkota_dewa_dn/results/docking/ligands/pdb/Luteolin.pdb
REMARK  5 active torsions:
REMARK  status: ('A' for Active; 'I' for Inactive)
REMARK    1  A    between atoms: C3_3  and  O6_21
REMARK    2  A    between atoms: C4_4  and  O5_20
REMARK    3  A    between atoms: C6_6  and  C7_7
REMARK    4  A    between atoms: C11_12  and  O4_19
REMARK    5  A    between atoms: C13_14  and  O3_18
REMARK                            x       y       z     vdW  Elec       q    Type
REMARK                         _______ _______ _______ _____ _____    ______ ____
ROOT
ATOM      1  C7  UNL     1      46.005   8.320  11.059  0.00  0.00    +0.139 A 
ATOM      2  C8  UNL     1      45.842   7.320  10.182  0.00  0.00    +0.098 A 
ATOM      3  C9  UNL     1      44.479   6.893   9.834  0.00  0.00    +0.197 A 
ATOM      4  O1  UNL     1      44.274   5.976   9.045  0.00  0.00    -0.287 OA
ATOM      5  C10 UNL     1      43.370   7.608  10.473  0.00  0.00    +0.105 A 
ATOM      6  C11 UNL     1      42.035   7.282  10.210  0.00  0.00    +0.135 A 
ATOM      7  C12 UNL     1      41.006   7.982  10.834  0.00  0.00    +0.091 A 
ATOM      8  C13 UNL     1      41.323   9.008  11.720  0.00  0.00    +0.124 A 
ATOM      9  C14 UNL     1      42.648   9.342  11.990  0.00  0.00    +0.092 A 
ATOM     10  C15 UNL     1      43.674   8.637  11.362  0.00  0.00    +0.146 A 
ATOM     11  O2  UNL     1      44.962   9.006  11.663  0.00  0.00    -0.454 OA
ENDROOT
BRANCH   1  17
ATOM     12  C1  UNL     1      48.002   8.310  12.588  0.00  0.00    +0.015 A 
ATOM     13  C2  UNL     1      49.270   8.781  12.951  0.00  0.00    +0.050 A 
ATOM     14  C3  UNL     1      49.882   9.750  12.169  0.00  0.00    +0.158 A 
ATOM     15  C4  UNL     1      49.237  10.248  11.040  0.00  0.00    +0.159 A 
ATOM     16  C5  UNL     1      47.979   9.789  10.674  0.00  0.00    +0.060 A 
ATOM     17  C6  UNL     1      47.346   8.802  11.444  0.00  0.00    +0.021 A 
BRANCH  15  18
ATOM     18  O5  UNL     1      49.845  11.203  10.275  0.00  0.00    -0.503 OA
ATOM     19  H9  UNL     1      49.611  12.049  10.706  0.00  0.00    +0.292 HD
ENDBRANCH  15  18
BRANCH  14  20
ATOM     20  O6  UNL     1      51.117  10.249  12.468  0.00  0.00    -0.503 OA
ATOM     21  H10 UNL     1      51.364  10.888  11.777  0.00  0.00    +0.292 HD
ENDBRANCH  14  20
ENDBRANCH   1  17
BRANCH   8  22
ATOM     22  O3  UNL     1      40.350   9.722  12.356  0.00  0.00    -0.507 OA
ATOM     23  H7  UNL     1      40.378   9.514  13.305  0.00  0.00    +0.292 HD
ENDBRANCH   8  22
BRANCH   6  24
ATOM     24  O4  UNL     1      41.668   6.284   9.348  0.00  0.00    -0.506 OA
ATOM     25  H8  UNL     1      41.081   5.660   9.835  0.00  0.00    +0.292 HD
ENDBRANCH   6  24
TORSDOF 5
ENDMDL
MODEL 5
REMARK VINA RESULT:    -7.903      2.692      3.573
REMARK INTER + INTRA:          -9.613
REMARK INTER:                  -9.307
REMARK INTRA:                  -0.306
REMARK UNBOUND:                -0.324
REMARK  Name = data/mahkota_dewa_dn/results/docking/ligands/pdb/Luteolin.pdb
REMARK  5 active torsions:
REMARK  status: ('A' for Active; 'I' for Inactive)
REMARK    1  A    between atoms: C3_3  and  O6_21
REMARK    2  A    between atoms: C4_4  and  O5_20
REMARK    3  A    between atoms: C6_6  and  C7_7
REMARK    4  A    between atoms: C11_12  and  O4_19
REMARK    5  A    between atoms: C13_14  and  O3_18
REMARK                            x       y       z     vdW  Elec       q    Type
REMARK                         _______ _______ _______ _____ _____    ______ ____
ROOT
ATOM      1  C7  UNL     1      44.023   8.582  12.822  0.00  0.00    +0.139 A 
ATOM      2  C8  UNL     1      43.129   9.162  12.008  0.00  0.00    +0.098 A 
ATOM      3  C9  UNL     1      41.696   8.981  12.279  0.00  0.00    +0.197 A 
ATOM      4  O1  UNL     1      40.837   9.479  11.559  0.00  0.00    -0.287 OA
ATOM      5  C10 UNL     1      41.333   8.174  13.448  0.00  0.00    +0.105 A 
ATOM      6  C11 UNL     1      39.997   7.941  13.796  0.00  0.00    +0.135 A 
ATOM      7  C12 UNL     1      39.688   7.170  14.913  0.00  0.00    +0.091 A 
ATOM      8  C13 UNL     1      40.722   6.636  15.677  0.00  0.00    +0.124 A 
ATOM      9  C14 UNL     1      42.054   6.861  15.341  0.00  0.00    +0.092 A 
ATOM     10  C15 UNL     1      42.359   7.633  14.220  0.00  0.00    +0.146 A 
ATOM     11  O2  UNL     1      43.687   7.824  13.934  0.00  0.00    -0.454 OA
ENDROOT
BRANCH   1  17
ATOM     12  C1  UNL     1      46.409   8.114  13.464  0.00  0.00    +0.015 A 
ATOM     13  C2  UNL     1      47.785   8.270  13.263  0.00  0.00    +0.050 A 
ATOM     14  C3  UNL     1      48.230   9.051  12.206  0.00  0.00    +0.158 A 
ATOM     15  C4  UNL     1      47.315   9.673  11.362  0.00  0.00    +0.159 A 
ATOM     16  C5  UNL     1      45.948   9.526  11.556  0.00  0.00    +0.060 A 
ATOM     17  C6  UNL     1      45.475   8.733  12.611  0.00  0.00    +0.021 A 
BRANCH  15  18
ATOM     18  O5  UNL     1      47.760  10.443  10.324  0.00  0.00    -0.503 OA
ATOM     19  H9  UNL     1      46.988  10.525   9.730  0.00  0.00    +0.292 HD
ENDBRANCH  15  18
BRANCH  14  20
ATOM     20  O6  UNL     1      49.559   9.242  11.955  0.00  0.00    -0.503 OA
ATOM     21  H10 UNL     1      49.979   9.572  12.769  0.00  0.00    +0.292 HD
ENDBRANCH  14  20
ENDBRANCH   1  17
BRANCH   8  22
ATOM     22  O3  UNL     1      40.468   5.875  16.780  0.00  0.00    -0.507 OA
ATOM     23  H7  UNL     1      40.112   6.447  17.481  0.00  0.00    +0.292 HD
ENDBRANCH   8  22
BRANCH   6  24
ATOM     24  O4  UNL     1      38.943   8.442  13.080  0.00  0.00    -0.506 OA
ATOM     25  H8  UNL     1      38.920   9.418  13.212  0.00  0.00    +0.292 HD
ENDBRANCH   6  24
TORSDOF 5
ENDMDL
MODEL 6
REMARK VINA RESULT:    -7.810      2.520      3.719
REMARK INTER + INTRA:          -9.505
REMARK INTER:                  -9.220
REMARK INTRA:                  -0.285
REMARK UNBOUND:                -0.324
REMARK  Name = data/mahkota_dewa_dn/results/docking/ligands/pdb/Luteolin.pdb
REMARK  5 active torsions:
REMARK  status: ('A' for Active; 'I' for Inactive)
REMARK    1  A    between atoms: C3_3  and  O6_21
REMARK    2  A    between atoms: C4_4  and  O5_20
REMARK    3  A    between atoms: C6_6  and  C7_7
REMARK    4  A    between atoms: C11_12  and  O4_19
REMARK    5  A    between atoms: C13_14  and  O3_18
REMARK                            x       y       z     vdW  Elec       q    Type
REMARK                         _______ _______ _______ _____ _____    ______ ____
ROOT
ATOM      1  C7  UNL     1      43.098   7.638  10.690  0.00  0.00    +0.139 A 
ATOM      2  C8  UNL     1      42.292   8.391   9.928  0.00  0.00    +0.098 A 
ATOM      3  C9  UNL     1      40.911   8.629  10.372  0.00  0.00    +0.197 A 
ATOM      4  O1  UNL     1      40.129   9.301   9.707  0.00  0.00    -0.287 OA
ATOM      5  C10 UNL     1      40.503   8.025  11.644  0.00  0.00    +0.105 A 
ATOM      6  C11 UNL     1      39.212   8.191  12.157  0.00  0.00    +0.135 A 
ATOM      7  C12 UNL     1      38.858   7.604  13.370  0.00  0.00    +0.091 A 
ATOM      8  C13 UNL     1      39.804   6.852  14.061  0.00  0.00    +0.124 A 
ATOM      9  C14 UNL     1      41.092   6.680  13.560  0.00  0.00    +0.092 A 
ATOM     10  C15 UNL     1      41.441   7.270  12.346  0.00  0.00    +0.146 A 
ATOM     11  O2  UNL     1      42.722   7.069  11.898  0.00  0.00    -0.454 OA
ENDROOT
BRANCH   1  17
ATOM     12  C1  UNL     1      44.813   6.670   9.125  0.00  0.00    +0.015 A 
ATOM     13  C2  UNL     1      46.143   6.410   8.774  0.00  0.00    +0.050 A 
ATOM     14  C3  UNL     1      47.161   6.848   9.609  0.00  0.00    +0.158 A 
ATOM     15  C4  UNL     1      46.859   7.532  10.782  0.00  0.00    +0.159 A 
ATOM     16  C5  UNL     1      45.542   7.792  11.139  0.00  0.00    +0.060 A 
ATOM     17  C6  UNL     1      44.497   7.369  10.306  0.00  0.00    +0.021 A 
BRANCH  15  18
ATOM     18  O5  UNL     1      47.867   7.959  11.600  0.00  0.00    -0.503 OA
ATOM     19  H9  UNL     1      48.531   7.242  11.567  0.00  0.00    +0.292 HD
ENDBRANCH  15  18
BRANCH  14  20
ATOM     20  O6  UNL     1      48.479   6.627   9.322  0.00  0.00    -0.503 OA
ATOM     21  H10 UNL     1      48.938   6.404  10.150  0.00  0.00    +0.292 HD
ENDBRANCH  14  20
ENDBRANCH   1  17
BRANCH   8  22
ATOM     22  O3  UNL     1      39.505   6.257  15.251  0.00  0.00    -0.507 OA
ATOM     23  H7  UNL     1      40.250   5.692  15.516  0.00  0.00    +0.292 HD
ENDBRANCH   8  22
BRANCH   6  24
ATOM     24  O4  UNL     1      38.245   8.920  11.519  0.00  0.00    -0.506 OA
ATOM     25  H8  UNL     1      37.430   8.369  11.469  0.00  0.00    +0.292 HD
ENDBRANCH   6  24
TORSDOF 5
ENDMDL
MODEL 7
REMARK VINA RESULT:    -7.803      1.761      6.858
REMARK INTER + INTRA:          -9.496
REMARK INTER:                  -9.192
REMARK INTRA:                  -0.304
REMARK UNBOUND:                -0.324
REMARK  Name = data/mahkota_dewa_dn/results/docking/ligands/pdb/Luteolin.pdb
REMARK  5 active torsions:
REMARK  status: ('A' for Active; 'I' for Inactive)
REMARK    1  A    between atoms: C3_3  and  O6_21
REMARK    2  A    between atoms: C4_4  and  O5_20
REMARK    3  A    between atoms: C6_6  and  C7_7
REMARK    4  A    between atoms: C11_12  and  O4_19
REMARK    5  A    between atoms: C13_14  and  O3_18
REMARK                            x       y       z     vdW  Elec       q    Type
REMARK                         _______ _______ _______ _____ _____    ______ ____
ROOT
ATOM      1  C7  UNL     1      43.628   7.459  12.522  0.00  0.00    +0.139 A 
ATOM      2  C8  UNL     1      44.648   7.958  13.235  0.00  0.00    +0.098 A 
ATOM      3  C9  UNL     1      45.972   8.065  12.604  0.00  0.00    +0.197 A 
ATOM      4  O1  UNL     1      46.941   8.504  13.215  0.00  0.00    -0.287 OA
ATOM      5  C10 UNL     1      46.088   7.621  11.212  0.00  0.00    +0.105 A 
ATOM      6  C11 UNL     1      47.302   7.681  10.519  0.00  0.00    +0.135 A 
ATOM      7  C12 UNL     1      47.376   7.251   9.196  0.00  0.00    +0.091 A 
ATOM      8  C13 UNL     1      46.230   6.762   8.576  0.00  0.00    +0.124 A 
ATOM      9  C14 UNL     1      45.017   6.697   9.256  0.00  0.00    +0.092 A 
ATOM     10  C15 UNL     1      44.948   7.128  10.580  0.00  0.00    +0.146 A 
ATOM     11  O2  UNL     1      43.728   7.043  11.203  0.00  0.00    -0.454 OA
ENDROOT
BRANCH   1  17
ATOM     12  C1  UNL     1      41.266   6.598  12.439  0.00  0.00    +0.015 A 
ATOM     13  C2  UNL     1      39.980   6.493  12.982  0.00  0.00    +0.050 A 
ATOM     14  C3  UNL     1      39.699   7.130  14.182  0.00  0.00    +0.158 A 
ATOM     15  C4  UNL     1      40.685   7.866  14.832  0.00  0.00    +0.159 A 
ATOM     16  C5  UNL     1      41.962   7.977  14.299  0.00  0.00    +0.060 A 
ATOM     17  C6  UNL     1      42.273   7.334  13.093  0.00  0.00    +0.021 A 
BRANCH  15  18
ATOM     18  O5  UNL     1      40.400   8.492  16.013  0.00  0.00    -0.503 OA
ATOM     19  H9  UNL     1      39.487   8.825  15.901  0.00  0.00    +0.292 HD
ENDBRANCH  15  18
BRANCH  14  20
ATOM     20  O6  UNL     1      38.465   7.065  14.765  0.00  0.00    -0.503 OA
ATOM     21  H10 UNL     1      38.396   7.786  15.415  0.00  0.00    +0.292 HD
ENDBRANCH  14  20
ENDBRANCH   1  17
BRANCH   8  22
ATOM     22  O3  UNL     1      46.254   6.329   7.283  0.00  0.00    -0.507 OA
ATOM     23  H7  UNL     1      45.694   5.537   7.207  0.00  0.00    +0.292 HD
ENDBRANCH   8  22
BRANCH   6  24
ATOM     24  O4  UNL     1      48.457   8.153  11.080  0.00  0.00    -0.506 OA
ATOM     25  H8  UNL     1      48.882   7.414  11.574  0.00  0.00    +0.292 HD
ENDBRANCH   6  24
TORSDOF 5
ENDMDL
MODEL 8
REMARK VINA RESULT:    -7.739      2.956      6.858
REMARK INTER + INTRA:          -9.420
REMARK INTER:                  -9.143
REMARK INTRA:                  -0.278
REMARK UNBOUND:                -0.324
REMARK  Name = data/mahkota_dewa_dn/results/docking/ligands/pdb/Luteolin.pdb
REMARK  5 active torsions:
REMARK  status: ('A' for Active; 'I' for Inactive)
REMARK    1  A    between atoms: C3_3  and  O6_21
REMARK    2  A    between atoms: C4_4  and  O5_20
REMARK    3  A    between atoms: C6_6  and  C7_7
REMARK    4  A    between atoms: C11_12  and  O4_19
REMARK    5  A    between atoms: C13_14  and  O3_18
REMARK                            x       y       z     vdW  Elec       q    Type
REMARK                         _______ _______ _______ _____ _____    ______ ____
ROOT
ATOM      1  C7  UNL     1      43.995   8.038  11.132  0.00  0.00    +0.139 A 
ATOM      2  C8  UNL     1      44.512   6.874  10.713  0.00  0.00    +0.098 A 
ATOM      3  C9  UNL     1      45.973   6.710  10.692  0.00  0.00    +0.197 A 
ATOM      4  O1  UNL     1      46.497   5.671  10.307  0.00  0.00    -0.287 OA
ATOM      5  C10 UNL     1      46.780   7.846  11.149  0.00  0.00    +0.105 A 
ATOM      6  C11 UNL     1      48.178   7.793  11.171  0.00  0.00    +0.135 A 
ATOM      7  C12 UNL     1      48.915   8.890  11.612  0.00  0.00    +0.091 A 
ATOM      8  C13 UNL     1      48.242  10.035  12.029  0.00  0.00    +0.124 A 
ATOM      9  C14 UNL     1      46.852  10.099  12.012  0.00  0.00    +0.092 A 
ATOM     10  C15 UNL     1      46.119   8.998  11.569  0.00  0.00    +0.146 A 
ATOM     11  O2  UNL     1      44.751   9.114  11.573  0.00  0.00    -0.454 OA
ENDROOT
BRANCH   1  17
ATOM     12  C1  UNL     1      41.793   8.532  10.022  0.00  0.00    +0.015 A 
ATOM     13  C2  UNL     1      40.412   8.755  10.083  0.00  0.00    +0.050 A 
ATOM     14  C3  UNL     1      39.774   8.712  11.315  0.00  0.00    +0.158 A 
ATOM     15  C4  UNL     1      40.503   8.455  12.472  0.00  0.00    +0.159 A 
ATOM     16  C5  UNL     1      41.873   8.236  12.421  0.00  0.00    +0.060 A 
ATOM     17  C6  UNL     1      42.538   8.263  11.186  0.00  0.00    +0.021 A 
BRANCH  15  18
ATOM     18  O5  UNL     1      39.868   8.417  13.682  0.00  0.00    -0.503 OA
ATOM     19  H9  UNL     1      39.527   7.504  13.751  0.00  0.00    +0.292 HD
ENDBRANCH  15  18
BRANCH  14  20
ATOM     20  O6  UNL     1      38.430   8.920  11.442  0.00  0.00    -0.503 OA
ATOM     21  H10 UNL     1      37.967   8.120  11.138  0.00  0.00    +0.292 HD
ENDBRANCH  14  20
ENDBRANCH   1  17
BRANCH   8  22
ATOM     22  O3  UNL     1      48.920  11.134  12.469  0.00  0.00    -0.507 OA
ATOM     23  H7  UNL     1      48.313  11.689  12.987  0.00  0.00    +0.292 HD
ENDBRANCH   8  22
BRANCH   6  24
ATOM     24  O4  UNL     1      48.889   6.693  10.772  0.00  0.00    -0.506 OA
ATOM     25  H8  UNL     1      49.767   6.718  11.217  0.00  0.00    +0.292 HD
ENDBRANCH   6  24
TORSDOF 5
ENDMDL
MODEL 9
REMARK VINA RESULT:    -7.665      2.263      4.318
REMARK INTER + INTRA:          -9.333
REMARK INTER:                  -9.035
REMARK INTRA:                  -0.298
REMARK UNBOUND:                -0.324
REMARK  Name = data/mahkota_dewa_dn/results/docking/ligands/pdb/Luteolin.pdb
REMARK  5 active torsions:
REMARK  status: ('A' for Active; 'I' for Inactive)
REMARK    1  A    between atoms: C3_3  and  O6_21
REMARK    2  A    between atoms: C4_4  and  O5_20
REMARK    3  A    between atoms: C6_6  and  C7_7
REMARK    4  A    between atoms: C11_12  and  O4_19
REMARK    5  A    between atoms: C13_14  and  O3_18
REMARK                            x       y       z     vdW  Elec       q    Type
REMARK                         _______ _______ _______ _____ _____    ______ ____
ROOT
ATOM      1  C7  UNL     1      45.519   6.789  10.212  0.00  0.00    +0.139 A 
ATOM      2  C8  UNL     1      44.277   7.045   9.776  0.00  0.00    +0.098 A 
ATOM      3  C9  UNL     1      43.275   7.541  10.729  0.00  0.00    +0.197 A 
ATOM      4  O1  UNL     1      42.123   7.780  10.385  0.00  0.00    -0.287 OA
ATOM      5  C10 UNL     1      43.710   7.736  12.116  0.00  0.00    +0.105 A 
ATOM      6  C11 UNL     1      42.836   8.206  13.103  0.00  0.00    +0.135 A 
ATOM      7  C12 UNL     1      43.282   8.380  14.410  0.00  0.00    +0.091 A 
ATOM      8  C13 UNL     1      44.606   8.082  14.721  0.00  0.00    +0.124 A 
ATOM      9  C14 UNL     1      45.485   7.614  13.748  0.00  0.00    +0.092 A 
ATOM     10  C15 UNL     1      45.033   7.441  12.440  0.00  0.00    +0.146 A 
ATOM     11  O2  UNL     1      45.940   6.978  11.520  0.00  0.00    -0.454 OA
ENDROOT
BRANCH   1  17
ATOM     12  C1  UNL     1      47.676   5.567   9.787  0.00  0.00    +0.015 A 
ATOM     13  C2  UNL     1      48.677   5.114   8.920  0.00  0.00    +0.050 A 
ATOM     14  C3  UNL     1      48.578   5.398   7.565  0.00  0.00    +0.158 A 
ATOM     15  C4  UNL     1      47.497   6.127   7.080  0.00  0.00    +0.159 A 
ATOM     16  C5  UNL     1      46.500   6.582   7.933  0.00  0.00    +0.060 A 
ATOM     17  C6  UNL     1      46.574   6.299   9.304  0.00  0.00    +0.021 A 
BRANCH  15  18
ATOM     18  O5  UNL     1      47.407   6.404   5.744  0.00  0.00    -0.503 OA
ATOM     19  H9  UNL     1      47.352   7.379   5.699  0.00  0.00    +0.292 HD
ENDBRANCH  15  18
BRANCH  14  20
ATOM     20  O6  UNL     1      49.521   4.984   6.667  0.00  0.00    -0.503 OA
ATOM     21  H10 UNL     1      49.726   4.050   6.848  0.00  0.00    +0.292 HD
ENDBRANCH  14  20
ENDBRANCH   1  17
BRANCH   8  22
ATOM     22  O3  UNL     1      45.089   8.236  15.987  0.00  0.00    -0.507 OA
ATOM     23  H7  UNL     1      45.962   8.662  15.940  0.00  0.00    +0.292 HD
ENDBRANCH   8  22
BRANCH   6  24
ATOM     24  O4  UNL     1      41.526   8.514  12.852  0.00  0.00    -0.506 OA
ATOM     25  H8  UNL     1      41.490   9.048  12.025  0.00  0.00    +0.292 HD
ENDBRANCH   6  24
TORSDOF 5
ENDMDL
