MODEL 1
REMARK VINA RESULT:    -8.554      0.000      0.000
REMARK INTER + INTRA:         -11.743
REMARK INTER:                 -11.054
REMARK INTRA:                  -0.689
REMARK UNBOUND:                -0.689
REMARK  Name = data/mahkota_dewa_dn/results/docking/ligands/pdb/Pinoresinol.pdb
REMARK  8 active torsions:
REMARK  status: ('A' for Active; 'I' for Inactive)
REMARK    1  A    between atoms: C1_1  and  O1_2
REMARK    2  A    between atoms: O1_2  and  C2_3
REMARK    3  A    between atoms: C4_5  and  C8_10
REMARK    4  A    between atoms: C7_8  and  O2_9
REMARK    5  A    between atoms: C13_17  and  C14_18
REMARK    6  A    between atoms: C16_20  and  O6_25
REMARK    7  A    between atoms: C17_21  and  O5_24
REMARK    8  A    between atoms: O6_25  and  C20_26
REMARK                            x       y       z     vdW  Elec       q    Type
REMARK                         _______ _______ _______ _____ _____    ______ ____
ROOT
ATOM      1  C8  UNL     1      43.690   8.715  14.237  0.00  0.00    +0.154 C 
ATOM      2  O3  UNL     1      44.692   8.277  15.215  0.00  0.00    -0.371 OA
ATOM      3  C9  UNL     1      45.868   7.800  14.493  0.00  0.00    +0.167 C 
ATOM      4  C10 UNL     1      45.669   8.342  13.113  0.00  0.00    +0.056 C 
ATOM      5  C11 UNL     1      44.197   8.116  12.952  0.00  0.00    +0.056 C 
ATOM      6  C12 UNL     1      43.998   8.660  11.572  0.00  0.00    +0.167 C 
ATOM      7  O4  UNL     1      45.173   8.181  10.851  0.00  0.00    -0.371 OA
ATOM      8  C13 UNL     1      46.176   7.744  11.828  0.00  0.00    +0.154 C 
ENDROOT
BRANCH   1  11
ATOM      9  C2  UNL     1      40.214   7.105  14.030  0.00  0.00    +0.162 A 
ATOM     10  C3  UNL     1      41.509   7.512  13.692  0.00  0.00    +0.055 A 
ATOM     11  C4  UNL     1      42.299   8.247  14.594  0.00  0.00    -0.015 A 
ATOM     12  C5  UNL     1      41.764   8.576  15.849  0.00  0.00    +0.010 A 
ATOM     13  C6  UNL     1      40.472   8.180  16.197  0.00  0.00    +0.049 A 
ATOM     14  C7  UNL     1      39.706   7.452  15.289  0.00  0.00    +0.158 A 
BRANCH   9  16
ATOM     15  C1  UNL     1      39.943   5.804  12.052  0.00  0.00    +0.277 C 
ATOM     16  O1  UNL     1      39.376   6.390  13.214  0.00  0.00    -0.491 OA
ENDBRANCH   9  16
BRANCH  14  17
ATOM     17  O2  UNL     1      38.437   7.064  15.628  0.00  0.00    -0.503 OA
ATOM     18  H7  UNL     1      38.437   6.116  15.827  0.00  0.00    +0.292 HD
ENDBRANCH  14  17
ENDBRANCH   1  11
BRANCH   8  19
ATOM     19  C14 UNL     1      47.567   8.212  11.471  0.00  0.00    -0.015 A 
ATOM     20  C15 UNL     1      48.010   9.513  11.767  0.00  0.00    +0.055 A 
ATOM     21  C16 UNL     1      49.310   9.925  11.450  0.00  0.00    +0.162 A 
ATOM     22  C17 UNL     1      50.174   9.009  10.836  0.00  0.00    +0.158 A 
ATOM     23  C18 UNL     1      49.755   7.715  10.536  0.00  0.00    +0.049 A 
ATOM     24  C19 UNL     1      48.455   7.318  10.853  0.00  0.00    +0.010 A 
BRANCH  22  25
ATOM     25  O5  UNL     1      51.451   9.399  10.527  0.00  0.00    -0.503 OA
ATOM     26  H19 UNL     1      52.079   8.830  10.997  0.00  0.00    +0.292 HD
ENDBRANCH  22  25
BRANCH  21  27
ATOM     27  O6  UNL     1      49.824  11.169  11.701  0.00  0.00    -0.491 OA
ATOM     28  C20 UNL     1      50.286  11.430  13.019  0.00  0.00    +0.277 C 
ENDBRANCH  21  27
ENDBRANCH   8  19
TORSDOF 6
ENDMDL
MODEL 2
REMARK VINA RESULT:    -8.488      3.375      8.638
REMARK INTER + INTRA:         -11.657
REMARK INTER:                 -10.868
REMARK INTRA:                  -0.789
REMARK UNBOUND:                -0.689
REMARK  Name = data/mahkota_dewa_dn/results/docking/ligands/pdb/Pinoresinol.pdb
REMARK  8 active torsions:
REMARK  status: ('A' for Active; 'I' for Inactive)
REMARK    1  A    between atoms: C1_1  and  O1_2
REMARK    2  A    between atoms: O1_2  and  C2_3
REMARK    3  A    between atoms: C4_5  and  C8_10
REMARK    4  A    between atoms: C7_8  and  O2_9
REMARK    5  A    between atoms: C13_17  and  C14_18
REMARK    6  A    between atoms: C16_20  and  O6_25
REMARK    7  A    between atoms: C17_21  and  O5_24
REMARK    8  A    between atoms: O6_25  and  C20_26
REMARK                            x       y       z     vdW  Elec       q    Type
REMARK                         _______ _______ _______ _____ _____    ______ ____
ROOT
ATOM      1  C8  UNL     1      46.919   6.307  10.098  0.00  0.00    +0.154 C 
ATOM      2  O3  UNL     1      47.479   7.519  10.706  0.00  0.00    -0.371 OA
ATOM      3  C9  UNL     1      46.377   8.374  11.138  0.00  0.00    +0.167 C 
ATOM      4  C10 UNL     1      45.199   7.451  11.124  0.00  0.00    +0.056 C 
ATOM      5  C11 UNL     1      45.481   6.686   9.868  0.00  0.00    +0.056 C 
ATOM      6  C12 UNL     1      44.304   5.763   9.854  0.00  0.00    +0.167 C 
ATOM      7  O4  UNL     1      43.202   6.618  10.285  0.00  0.00    -0.371 OA
ATOM      8  C13 UNL     1      43.761   7.830  10.893  0.00  0.00    +0.154 C 
ENDROOT
BRANCH   1  11
ATOM      9  C2  UNL     1      47.841   5.948   6.391  0.00  0.00    +0.162 A 
ATOM     10  C3  UNL     1      47.178   6.333   7.563  0.00  0.00    +0.055 A 
ATOM     11  C4  UNL     1      47.637   5.921   8.826  0.00  0.00    -0.015 A 
ATOM     12  C5  UNL     1      48.777   5.106   8.900  0.00  0.00    +0.010 A 
ATOM     13  C6  UNL     1      49.444   4.711   7.740  0.00  0.00    +0.049 A 
ATOM     14  C7  UNL     1      48.974   5.130   6.497  0.00  0.00    +0.158 A 
BRANCH   9  16
ATOM     15  C1  UNL     1      47.457   7.684   4.805  0.00  0.00    +0.277 C 
ATOM     16  O1  UNL     1      47.463   6.300   5.122  0.00  0.00    -0.491 OA
ENDBRANCH   9  16
BRANCH  14  17
ATOM     17  O2  UNL     1      49.627   4.743   5.358  0.00  0.00    -0.503 OA
ATOM     18  H7  UNL     1      50.276   4.058   5.581  0.00  0.00    +0.292 HD
ENDBRANCH  14  17
ENDBRANCH   1  11
BRANCH   8  19
ATOM     19  C14 UNL     1      43.044   8.216  12.165  0.00  0.00    -0.015 A 
ATOM     20  C15 UNL     1      43.197   7.481  13.355  0.00  0.00    +0.055 A 
ATOM     21  C16 UNL     1      42.544   7.865  14.531  0.00  0.00    +0.162 A 
ATOM     22  C17 UNL     1      41.734   9.008  14.509  0.00  0.00    +0.158 A 
ATOM     23  C18 UNL     1      41.570   9.750  13.341  0.00  0.00    +0.049 A 
ATOM     24  C19 UNL     1      42.223   9.354  12.173  0.00  0.00    +0.010 A 
BRANCH  22  25
ATOM     25  O5  UNL     1      41.094   9.397  15.656  0.00  0.00    -0.503 OA
ATOM     26  H19 UNL     1      41.449  10.252  15.943  0.00  0.00    +0.292 HD
ENDBRANCH  22  25
BRANCH  21  27
ATOM     27  O6  UNL     1      42.636   7.211  15.731  0.00  0.00    -0.491 OA
ATOM     28  C20 UNL     1      41.760   6.113  15.945  0.00  0.00    +0.277 C 
ENDBRANCH  21  27
ENDBRANCH   8  19
TORSDOF 6
ENDMDL
MODEL 3
REMARK VINA RESULT:    -8.404      1.044      8.847
REMARK INTER + INTRA:         -11.549
REMARK INTER:                 -10.753
REMARK INTRA:                  -0.796
REMARK UNBOUND:                -0.689
REMARK  Name = data/mahkota_dewa_dn/results/docking/ligands/pdb/Pinoresinol.pdb
REMARK  8 active torsions:
REMARK  status: ('A' for Active; 'I' for Inactive)
REMARK    1  A    between atoms: C1_1  and  O1_2
REMARK    2  A    between atoms: O1_2  and  C2_3
REMARK    3  A    between atoms: C4_5  and  C8_10
REMARK    4  A    between atoms: C7_8  and  O2_9
REMARK    5  A    between atoms: C13_17  and  C14_18
REMARK    6  A    between atoms: C16_20  and  O6_25
REMARK    7  A    between atoms: C17_21  and  O5_24
REMARK    8  A    between atoms: O6_25  and  C20_26
REMARK                            x       y       z     vdW  Elec       q    Type
REMARK                         _______ _______ _______ _____ _____    ______ ____
ROOT
ATOM      1  C8  UNL     1      46.017   8.842  11.563  0.00  0.00    +0.154 C 
ATOM      2  O3  UNL     1      45.391   7.789  10.755  0.00  0.00    -0.371 OA
ATOM      3  C9  UNL     1      44.474   7.034  11.604  0.00  0.00    +0.167 C 
ATOM      4  C10 UNL     1      44.296   7.924  12.794  0.00  0.00    +0.056 C 
ATOM      5  C11 UNL     1      45.702   8.410  12.970  0.00  0.00    +0.056 C 
ATOM      6  C12 UNL     1      45.523   9.300  14.160  0.00  0.00    +0.167 C 
ATOM      7  O4  UNL     1      44.606   8.545  15.009  0.00  0.00    -0.371 OA
ATOM      8  C13 UNL     1      43.981   7.492  14.201  0.00  0.00    +0.154 C 
ENDROOT
BRANCH   1  11
ATOM      9  C2  UNL     1      49.580  10.240  11.311  0.00  0.00    +0.162 A 
ATOM     10  C3  UNL     1      48.210  10.139  11.579  0.00  0.00    +0.055 A 
ATOM     11  C4  UNL     1      47.500   8.958  11.303  0.00  0.00    -0.015 A 
ATOM     12  C5  UNL     1      48.187   7.870  10.744  0.00  0.00    +0.010 A 
ATOM     13  C6  UNL     1      49.552   7.958  10.467  0.00  0.00    +0.049 A 
ATOM     14  C7  UNL     1      50.238   9.138  10.748  0.00  0.00    +0.158 A 
BRANCH   9  16
ATOM     15  C1  UNL     1      50.606  11.690  12.900  0.00  0.00    +0.277 C 
ATOM     16  O1  UNL     1      50.349  11.350  11.545  0.00  0.00    -0.491 OA
ENDBRANCH   9  16
BRANCH  14  17
ATOM     17  O2  UNL     1      51.578   9.226  10.476  0.00  0.00    -0.503 OA
ATOM     18  H7  UNL     1      51.705   9.253   9.516  0.00  0.00    +0.292 HD
ENDBRANCH  14  17
ENDBRANCH   1  11
BRANCH   8  19
ATOM     19  C14 UNL     1      42.498   7.375  14.462  0.00  0.00    -0.015 A 
ATOM     20  C15 UNL     1      41.544   7.835  13.536  0.00  0.00    +0.055 A 
ATOM     21  C16 UNL     1      40.173   7.699  13.782  0.00  0.00    +0.162 A 
ATOM     22  C17 UNL     1      39.760   7.083  14.971  0.00  0.00    +0.158 A 
ATOM     23  C18 UNL     1      40.689   6.620  15.900  0.00  0.00    +0.049 A 
ATOM     24  C19 UNL     1      42.053   6.766  15.645  0.00  0.00    +0.010 A 
BRANCH  22  25
ATOM     25  O5  UNL     1      38.421   6.939  15.219  0.00  0.00    -0.503 OA
ATOM     26  H19 UNL     1      38.266   7.010  16.173  0.00  0.00    +0.292 HD
ENDBRANCH  22  25
BRANCH  21  27
ATOM     27  O6  UNL     1      39.178   8.116  12.939  0.00  0.00    -0.491 OA
ATOM     28  C20 UNL     1      39.551   8.478  11.617  0.00  0.00    +0.277 C 
ENDBRANCH  21  27
ENDBRANCH   8  19
TORSDOF 6
ENDMDL
MODEL 4
REMARK VINA RESULT:    -8.285      3.114      4.175
REMARK INTER + INTRA:         -11.396
REMARK INTER:                 -10.556
REMARK INTRA:                  -0.840
REMARK UNBOUND:                -0.689
REMARK  Name = data/mahkota_dewa_dn/results/docking/ligands/pdb/Pinoresinol.pdb
REMARK  8 active torsions:
REMARK  status: ('A' for Active; 'I' for Inactive)
REMARK    1  A    between atoms: C1_1  and  O1_2
REMARK    2  A    between atoms: O1_2  and  C2_3
REMARK    3  A    between atoms: C4_5  and  C8_10
REMARK    4  A    between atoms: C7_8  and  O2_9
REMARK    5  A    between atoms: C13_17  and  C14_18
REMARK    6  A    between atoms: C16_20  and  O6_25
REMARK    7  A    between atoms: C17_21  and  O5_24
REMARK    8  A    between atoms: O6_25  and  C20_26
REMARK                            x       y       z     vdW  Elec       q    Type
REMARK                         _______ _______ _______ _____ _____    ______ ____
ROOT
ATOM      1  C8  UNL     1      44.359   8.189  11.346  0.00  0.00    +0.154 C 
ATOM      2  O3  UNL     1      45.582   8.976  11.541  0.00  0.00    -0.371 OA
ATOM      3  C9  UNL     1      46.729   8.149  11.179  0.00  0.00    +0.167 C 
ATOM      4  C10 UNL     1      46.115   7.026  10.404  0.00  0.00    +0.056 C 
ATOM      5  C11 UNL     1      44.886   6.784  11.225  0.00  0.00    +0.056 C 
ATOM      6  C12 UNL     1      44.271   5.662  10.450  0.00  0.00    +0.167 C 
ATOM      7  O4  UNL     1      45.418   4.834  10.089  0.00  0.00    -0.371 OA
ATOM      8  C13 UNL     1      46.641   5.622  10.284  0.00  0.00    +0.154 C 
ENDROOT
BRANCH   1  11
ATOM      9  C2  UNL     1      41.104   8.394  13.365  0.00  0.00    +0.162 A 
ATOM     10  C3  UNL     1      41.997   8.215  12.303  0.00  0.00    +0.055 A 
ATOM     11  C4  UNL     1      43.384   8.355  12.487  0.00  0.00    -0.015 A 
ATOM     12  C5  UNL     1      43.867   8.686  13.762  0.00  0.00    +0.010 A 
ATOM     13  C6  UNL     1      42.988   8.872  14.829  0.00  0.00    +0.049 A 
ATOM     14  C7  UNL     1      41.616   8.729  14.626  0.00  0.00    +0.158 A 
BRANCH   9  16
ATOM     15  C1  UNL     1      39.179   8.190  11.975  0.00  0.00    +0.277 C 
ATOM     16  O1  UNL     1      39.741   8.280  13.275  0.00  0.00    -0.491 OA
ENDBRANCH   9  16
BRANCH  14  17
ATOM     17  O2  UNL     1      40.752   8.912  15.672  0.00  0.00    -0.503 OA
ATOM     18  H7  UNL     1      39.842   8.828  15.351  0.00  0.00    +0.292 HD
ENDBRANCH  14  17
ENDBRANCH   1  11
BRANCH   8  19
ATOM     19  C14 UNL     1      47.617   5.456   9.143  0.00  0.00    -0.015 A 
ATOM     20  C15 UNL     1      47.335   5.934   7.851  0.00  0.00    +0.055 A 
ATOM     21  C16 UNL     1      48.259   5.793   6.809  0.00  0.00    +0.162 A 
ATOM     22  C17 UNL     1      49.485   5.170   7.078  0.00  0.00    +0.158 A 
ATOM     23  C18 UNL     1      49.784   4.690   8.351  0.00  0.00    +0.049 A 
ATOM     24  C19 UNL     1      48.852   4.833   9.380  0.00  0.00    +0.010 A 
BRANCH  22  25
ATOM     25  O5  UNL     1      50.400   5.032   6.068  0.00  0.00    -0.503 OA
ATOM     26  H19 UNL     1      50.707   5.910   5.796  0.00  0.00    +0.292 HD
ENDBRANCH  22  25
BRANCH  21  27
ATOM     27  O6  UNL     1      48.069   6.229   5.525  0.00  0.00    -0.491 OA
ATOM     28  C20 UNL     1      47.503   7.520   5.351  0.00  0.00    +0.277 C 
ENDBRANCH  21  27
ENDBRANCH   8  19
TORSDOF 6
ENDMDL
MODEL 5
REMARK VINA RESULT:    -8.260      7.428     14.258
REMARK INTER + INTRA:         -11.364
REMARK INTER:                 -10.850
REMARK INTRA:                  -0.514
REMARK UNBOUND:                -0.689
REMARK  Name = data/mahkota_dewa_dn/results/docking/ligands/pdb/Pinoresinol.pdb
REMARK  8 active torsions:
REMARK  status: ('A' for Active; 'I' for Inactive)
REMARK    1  A    between atoms: C1_1  and  O1_2
REMARK    2  A    between atoms: O1_2  and  C2_3
REMARK    3  A    between atoms: C4_5  and  C8_10
REMARK    4  A    between atoms: C7_8  and  O2_9
REMARK    5  A    between atoms: C13_17  and  C14_18
REMARK    6  A    between atoms: C16_20  and  O6_25
REMARK    7  A    between atoms: C17_21  and  O5_24
REMARK    8  A    between atoms: O6_25  and  C20_26
REMARK                            x       y       z     vdW  Elec       q    Type
REMARK                         _______ _______ _______ _____ _____    ______ ____
ROOT
ATOM      1  C8  UNL     1      53.624  15.859   7.572  0.00  0.00    +0.154 C 
ATOM      2  O3  UNL     1      53.542  14.595   6.831  0.00  0.00    -0.371 OA
ATOM      3  C9  UNL     1      53.381  13.505   7.787  0.00  0.00    +0.167 C 
ATOM      4  C10 UNL     1      52.978  14.207   9.046  0.00  0.00    +0.056 C 
ATOM      5  C11 UNL     1      53.882  15.399   8.982  0.00  0.00    +0.056 C 
ATOM      6  C12 UNL     1      53.478  16.102  10.239  0.00  0.00    +0.167 C 
ATOM      7  O4  UNL     1      53.318  15.011  11.197  0.00  0.00    -0.371 OA
ATOM      8  C13 UNL     1      53.235  13.747  10.456  0.00  0.00    +0.154 C 
ENDROOT
BRANCH   1  11
ATOM      9  C2  UNL     1      56.835  17.941   7.306  0.00  0.00    +0.162 A 
ATOM     10  C3  UNL     1      55.848  17.082   7.803  0.00  0.00    +0.055 A 
ATOM     11  C4  UNL     1      54.711  16.764   7.041  0.00  0.00    -0.015 A 
ATOM     12  C5  UNL     1      54.573  17.327   5.763  0.00  0.00    +0.010 A 
ATOM     13  C6  UNL     1      55.547  18.189   5.257  0.00  0.00    +0.049 A 
ATOM     14  C7  UNL     1      56.667  18.492   6.029  0.00  0.00    +0.158 A 
BRANCH   9  16
ATOM     15  C1  UNL     1      57.812  19.111   9.138  0.00  0.00    +0.277 C 
ATOM     16  O1  UNL     1      57.972  18.306   7.980  0.00  0.00    -0.491 OA
ENDBRANCH   9  16
BRANCH  14  17
ATOM     17  O2  UNL     1      57.624  19.338   5.534  0.00  0.00    -0.503 OA
ATOM     18  H7  UNL     1      57.915  19.936   6.239  0.00  0.00    +0.292 HD
ENDBRANCH  14  17
ENDBRANCH   1  11
BRANCH   8  19
ATOM     19  C14 UNL     1      52.149  12.842  10.986  0.00  0.00    -0.015 A 
ATOM     20  C15 UNL     1      51.640  11.772  10.230  0.00  0.00    +0.055 A 
ATOM     21  C16 UNL     1      50.650  10.928  10.745  0.00  0.00    +0.162 A 
ATOM     22  C17 UNL     1      50.174  11.162  12.042  0.00  0.00    +0.158 A 
ATOM     23  C18 UNL     1      50.665  12.217  12.808  0.00  0.00    +0.049 A 
ATOM     24  C19 UNL     1      51.650  13.054  12.281  0.00  0.00    +0.010 A 
BRANCH  22  25
ATOM     25  O5  UNL     1      49.209  10.339  12.559  0.00  0.00    -0.503 OA
ATOM     26  H19 UNL     1      49.634   9.630  13.064  0.00  0.00    +0.292 HD
ENDBRANCH  22  25
BRANCH  21  27
ATOM     27  O6  UNL     1      50.099   9.864  10.081  0.00  0.00    -0.491 OA
ATOM     28  C20 UNL     1      50.685   8.587  10.294  0.00  0.00    +0.277 C 
ENDBRANCH  21  27
ENDBRANCH   8  19
TORSDOF 6
ENDMDL
MODEL 6
REMARK VINA RESULT:    -8.259      1.253      8.666
REMARK INTER + INTRA:         -11.362
REMARK INTER:                 -10.606
REMARK INTRA:                  -0.755
REMARK UNBOUND:                -0.689
REMARK  Name = data/mahkota_dewa_dn/results/docking/ligands/pdb/Pinoresinol.pdb
REMARK  8 active torsions:
REMARK  status: ('A' for Active; 'I' for Inactive)
REMARK    1  A    between atoms: C1_1  and  O1_2
REMARK    2  A    between atoms: O1_2  and  C2_3
REMARK    3  A    between atoms: C4_5  and  C8_10
REMARK    4  A    between atoms: C7_8  and  O2_9
REMARK    5  A    between atoms: C13_17  and  C14_18
REMARK    6  A    between atoms: C16_20  and  O6_25
REMARK    7  A    between atoms: C17_21  and  O5_24
REMARK    8  A    between atoms: O6_25  and  C20_26
REMARK                            x       y       z     vdW  Elec       q    Type
REMARK                         _______ _______ _______ _____ _____    ______ ____
ROOT
ATOM      1  C8  UNL     1      45.734   8.912  11.632  0.00  0.00    +0.154 C 
ATOM      2  O3  UNL     1      45.018   7.955  10.782  0.00  0.00    -0.371 OA
ATOM      3  C9  UNL     1      44.120   7.169  11.621  0.00  0.00    +0.167 C 
ATOM      4  C10 UNL     1      44.049   7.962  12.888  0.00  0.00    +0.056 C 
ATOM      5  C11 UNL     1      45.482   8.378  13.016  0.00  0.00    +0.056 C 
ATOM      6  C12 UNL     1      45.411   9.173  14.283  0.00  0.00    +0.167 C 
ATOM      7  O4  UNL     1      44.513   8.386  15.123  0.00  0.00    -0.371 OA
ATOM      8  C13 UNL     1      43.797   7.428  14.272  0.00  0.00    +0.154 C 
ENDROOT
BRANCH   1  11
ATOM      9  C2  UNL     1      49.246   8.012  10.376  0.00  0.00    +0.162 A 
ATOM     10  C3  UNL     1      47.878   7.932  10.664  0.00  0.00    +0.055 A 
ATOM     11  C4  UNL     1      47.204   8.993  11.292  0.00  0.00    -0.015 A 
ATOM     12  C5  UNL     1      47.926  10.146  11.636  0.00  0.00    +0.010 A 
ATOM     13  C6  UNL     1      49.291  10.238  11.359  0.00  0.00    +0.049 A 
ATOM     14  C7  UNL     1      49.941   9.175  10.735  0.00  0.00    +0.158 A 
BRANCH   9  16
ATOM     15  C1  UNL     1      49.273   5.915   9.245  0.00  0.00    +0.277 C 
ATOM     16  O1  UNL     1      49.981   7.028   9.771  0.00  0.00    -0.491 OA
ENDBRANCH   9  16
BRANCH  14  17
ATOM     17  O2  UNL     1      51.281   9.263  10.464  0.00  0.00    -0.503 OA
ATOM     18  H7  UNL     1      51.401   9.537   9.542  0.00  0.00    +0.292 HD
ENDBRANCH  14  17
ENDBRANCH   1  11
BRANCH   8  19
ATOM     19  C14 UNL     1      42.328   7.347  14.612  0.00  0.00    -0.015 A 
ATOM     20  C15 UNL     1      41.336   7.821  13.734  0.00  0.00    +0.055 A 
ATOM     21  C16 UNL     1      39.977   7.718  14.054  0.00  0.00    +0.162 A 
ATOM     22  C17 UNL     1      39.615   7.122  15.269  0.00  0.00    +0.158 A 
ATOM     23  C18 UNL     1      40.582   6.645  16.152  0.00  0.00    +0.049 A 
ATOM     24  C19 UNL     1      41.934   6.758  15.824  0.00  0.00    +0.010 A 
BRANCH  22  25
ATOM     25  O5  UNL     1      38.288   7.010  15.589  0.00  0.00    -0.503 OA
ATOM     26  H19 UNL     1      38.036   6.075  15.573  0.00  0.00    +0.292 HD
ENDBRANCH  22  25
BRANCH  21  27
ATOM     27  O6  UNL     1      38.948   8.151  13.261  0.00  0.00    -0.491 OA
ATOM     28  C20 UNL     1      39.199   8.258  11.867  0.00  0.00    +0.277 C 
ENDBRANCH  21  27
ENDBRANCH   8  19
TORSDOF 6
ENDMDL
MODEL 7
REMARK VINA RESULT:    -8.246      2.057      3.114
REMARK INTER + INTRA:         -11.345
REMARK INTER:                 -10.482
REMARK INTRA:                  -0.863
REMARK UNBOUND:                -0.689
REMARK  Name = data/mahkota_dewa_dn/results/docking/ligands/pdb/Pinoresinol.pdb
REMARK  8 active torsions:
REMARK  status: ('A' for Active; 'I' for Inactive)
REMARK    1  A    between atoms: C1_1  and  O1_2
REMARK    2  A    between atoms: O1_2  and  C2_3
REMARK    3  A    between atoms: C4_5  and  C8_10
REMARK    4  A    between atoms: C7_8  and  O2_9
REMARK    5  A    between atoms: C13_17  and  C14_18
REMARK    6  A    between atoms: C16_20  and  O6_25
REMARK    7  A    between atoms: C17_21  and  O5_24
REMARK    8  A    between atoms: O6_25  and  C20_26
REMARK                            x       y       z     vdW  Elec       q    Type
REMARK                         _______ _______ _______ _____ _____    ______ ____
ROOT
ATOM      1  C8  UNL     1      44.417   7.981  11.875  0.00  0.00    +0.154 C 
ATOM      2  O3  UNL     1      44.984   7.222  10.754  0.00  0.00    -0.371 OA
ATOM      3  C9  UNL     1      46.244   7.844  10.361  0.00  0.00    +0.167 C 
ATOM      4  C10 UNL     1      46.574   8.722  11.527  0.00  0.00    +0.056 C 
ATOM      5  C11 UNL     1      45.212   9.259  11.844  0.00  0.00    +0.056 C 
ATOM      6  C12 UNL     1      45.542  10.136  13.011  0.00  0.00    +0.167 C 
ATOM      7  O4  UNL     1      46.802  10.759  12.617  0.00  0.00    -0.371 OA
ATOM      8  C13 UNL     1      47.368  10.000  11.496  0.00  0.00    +0.154 C 
ENDROOT
BRANCH   1  11
ATOM      9  C2  UNL     1      40.613   7.621  12.217  0.00  0.00    +0.162 A 
ATOM     10  C3  UNL     1      41.987   7.412  12.389  0.00  0.00    +0.055 A 
ATOM     11  C4  UNL     1      42.932   8.209  11.720  0.00  0.00    -0.015 A 
ATOM     12  C5  UNL     1      42.478   9.225  10.864  0.00  0.00    +0.010 A 
ATOM     13  C6  UNL     1      41.112   9.440  10.680  0.00  0.00    +0.049 A 
ATOM     14  C7  UNL     1      40.190   8.639  11.353  0.00  0.00    +0.158 A 
BRANCH   9  16
ATOM     15  C1  UNL     1      39.412   7.112  14.211  0.00  0.00    +0.277 C 
ATOM     16  O1  UNL     1      39.625   6.892  12.825  0.00  0.00    -0.491 OA
ENDBRANCH   9  16
BRANCH  14  17
ATOM     17  O2  UNL     1      38.849   8.849  11.172  0.00  0.00    -0.503 OA
ATOM     18  H7  UNL     1      38.368   8.515  11.944  0.00  0.00    +0.292 HD
ENDBRANCH  14  17
ENDBRANCH   1  11
BRANCH   8  19
ATOM     19  C14 UNL     1      48.853   9.772  11.651  0.00  0.00    -0.015 A 
ATOM     20  C15 UNL     1      49.795  10.469  10.874  0.00  0.00    +0.055 A 
ATOM     21  C16 UNL     1      51.169  10.264  11.045  0.00  0.00    +0.162 A 
ATOM     22  C17 UNL     1      51.597   9.352  12.019  0.00  0.00    +0.158 A 
ATOM     23  C18 UNL     1      50.679   8.652  12.800  0.00  0.00    +0.049 A 
ATOM     24  C19 UNL     1      49.312   8.862  12.616  0.00  0.00    +0.010 A 
BRANCH  22  25
ATOM     25  O5  UNL     1      52.939   9.148  12.201  0.00  0.00    -0.503 OA
ATOM     26  H19 UNL     1      53.377   9.131  11.336  0.00  0.00    +0.292 HD
ENDBRANCH  22  25
BRANCH  21  27
ATOM     27  O6  UNL     1      52.154  10.898  10.335  0.00  0.00    -0.491 OA
ATOM     28  C20 UNL     1      51.935  12.258   9.987  0.00  0.00    +0.277 C 
ENDBRANCH  21  27
ENDBRANCH   8  19
TORSDOF 6
ENDMDL
MODEL 8
REMARK VINA RESULT:    -8.220      1.534      8.790
REMARK INTER + INTRA:         -11.312
REMARK INTER:                 -10.469
REMARK INTRA:                  -0.843
REMARK UNBOUND:                -0.689
REMARK  Name = data/mahkota_dewa_dn/results/docking/ligands/pdb/Pinoresinol.pdb
REMARK  8 active torsions:
REMARK  status: ('A' for Active; 'I' for Inactive)
REMARK    1  A    between atoms: C1_1  and  O1_2
REMARK    2  A    between atoms: O1_2  and  C2_3
REMARK    3  A    between atoms: C4_5  and  C8_10
REMARK    4  A    between atoms: C7_8  and  O2_9
REMARK    5  A    between atoms: C13_17  and  C14_18
REMARK    6  A    between atoms: C16_20  and  O6_25
REMARK    7  A    between atoms: C17_21  and  O5_24
REMARK    8  A    between atoms: O6_25  and  C20_26
REMARK                            x       y       z     vdW  Elec       q    Type
REMARK                         _______ _______ _______ _____ _____    ______ ____
ROOT
ATOM      1  C8  UNL     1      46.600   8.112  12.274  0.00  0.00    +0.154 C 
ATOM      2  O3  UNL     1      46.140   8.943  13.392  0.00  0.00    -0.371 OA
ATOM      3  C9  UNL     1      44.731   9.264  13.184  0.00  0.00    +0.167 C 
ATOM      4  C10 UNL     1      44.303   8.277  12.144  0.00  0.00    +0.056 C 
ATOM      5  C11 UNL     1      45.508   8.295  11.254  0.00  0.00    +0.056 C 
ATOM      6  C12 UNL     1      45.080   7.308  10.215  0.00  0.00    +0.167 C 
ATOM      7  O4  UNL     1      43.671   7.629  10.006  0.00  0.00    -0.371 OA
ATOM      8  C13 UNL     1      43.211   8.461  11.125  0.00  0.00    +0.154 C 
ENDROOT
BRANCH   1  11
ATOM      9  C2  UNL     1      49.720  10.210  11.510  0.00  0.00    +0.162 A 
ATOM     10  C3  UNL     1      48.470   9.823  12.008  0.00  0.00    +0.055 A 
ATOM     11  C4  UNL     1      47.956   8.537  11.764  0.00  0.00    -0.015 A 
ATOM     12  C5  UNL     1      48.717   7.638  11.001  0.00  0.00    +0.010 A 
ATOM     13  C6  UNL     1      49.962   8.013  10.494  0.00  0.00    +0.049 A 
ATOM     14  C7  UNL     1      50.454   9.292  10.748  0.00  0.00    +0.158 A 
BRANCH   9  16
ATOM     15  C1  UNL     1      50.745  11.756  13.006  0.00  0.00    +0.277 C 
ATOM     16  O1  UNL     1      50.294  11.440  11.697  0.00  0.00    -0.491 OA
ENDBRANCH   9  16
BRANCH  14  17
ATOM     17  O2  UNL     1      51.675   9.661  10.250  0.00  0.00    -0.503 OA
ATOM     18  H7  UNL     1      52.367   9.145  10.691  0.00  0.00    +0.292 HD
ENDBRANCH  14  17
ENDBRANCH   1  11
BRANCH   8  19
ATOM     19  C14 UNL     1      41.854   8.035  11.634  0.00  0.00    -0.015 A 
ATOM     20  C15 UNL     1      41.707   7.006  12.581  0.00  0.00    +0.055 A 
ATOM     21  C16 UNL     1      40.445   6.639  13.061  0.00  0.00    +0.162 A 
ATOM     22  C17 UNL     1      39.319   7.325  12.586  0.00  0.00    +0.158 A 
ATOM     23  C18 UNL     1      39.443   8.348  11.648  0.00  0.00    +0.049 A 
ATOM     24  C19 UNL     1      40.708   8.701  11.175  0.00  0.00    +0.010 A 
BRANCH  22  25
ATOM     25  O5  UNL     1      38.079   6.979  13.053  0.00  0.00    -0.503 OA
ATOM     26  H19 UNL     1      37.957   7.353  13.938  0.00  0.00    +0.292 HD
ENDBRANCH  22  25
BRANCH  21  27
ATOM     27  O6  UNL     1      40.209   5.652  13.981  0.00  0.00    -0.491 OA
ATOM     28  C20 UNL     1      40.802   5.801  15.263  0.00  0.00    +0.277 C 
ENDBRANCH  21  27
ENDBRANCH   8  19
TORSDOF 6
ENDMDL
MODEL 9
REMARK VINA RESULT:    -7.979      3.101      8.610
REMARK INTER + INTRA:         -11.000
REMARK INTER:                 -10.329
REMARK INTRA:                  -0.672
REMARK UNBOUND:                -0.689
REMARK  Name = data/mahkota_dewa_dn/results/docking/ligands/pdb/Pinoresinol.pdb
REMARK  8 active torsions:
REMARK  status: ('A' for Active; 'I' for Inactive)
REMARK    1  A    between atoms: C1_1  and  O1_2
REMARK    2  A    between atoms: O1_2  and  C2_3
REMARK    3  A    between atoms: C4_5  and  C8_10
REMARK    4  A    between atoms: C7_8  and  O2_9
REMARK    5  A    between atoms: C13_17  and  C14_18
REMARK    6  A    between atoms: C16_20  and  O6_25
REMARK    7  A    between atoms: C17_21  and  O5_24
REMARK    8  A    between atoms: O6_25  and  C20_26
REMARK                            x       y       z     vdW  Elec       q    Type
REMARK                         _______ _______ _______ _____ _____    ______ ____
ROOT
ATOM      1  C8  UNL     1      46.353   6.335  10.250  0.00  0.00    +0.154 C 
ATOM      2  O3  UNL     1      46.798   7.579  10.890  0.00  0.00    -0.371 OA
ATOM      3  C9  UNL     1      45.626   8.293  11.385  0.00  0.00    +0.167 C 
ATOM      4  C10 UNL     1      44.553   7.249  11.367  0.00  0.00    +0.056 C 
ATOM      5  C11 UNL     1      44.876   6.565  10.075  0.00  0.00    +0.056 C 
ATOM      6  C12 UNL     1      43.804   5.521  10.057  0.00  0.00    +0.167 C 
ATOM      7  O4  UNL     1      42.631   6.235  10.552  0.00  0.00    -0.371 OA
ATOM      8  C13 UNL     1      43.076   7.479  11.192  0.00  0.00    +0.154 C 
ENDROOT
BRANCH   1  11
ATOM      9  C2  UNL     1      48.910   5.103   7.670  0.00  0.00    +0.162 A 
ATOM     10  C3  UNL     1      48.247   5.316   8.884  0.00  0.00    +0.055 A 
ATOM     11  C4  UNL     1      47.066   6.076   8.945  0.00  0.00    -0.015 A 
ATOM     12  C5  UNL     1      46.556   6.629   7.760  0.00  0.00    +0.010 A 
ATOM     13  C6  UNL     1      47.209   6.429   6.544  0.00  0.00    +0.049 A 
ATOM     14  C7  UNL     1      48.379   5.672   6.505  0.00  0.00    +0.158 A 
BRANCH   9  16
ATOM     15  C1  UNL     1      51.285   5.022   7.856  0.00  0.00    +0.277 C 
ATOM     16  O1  UNL     1      50.064   4.379   7.520  0.00  0.00    -0.491 OA
ENDBRANCH   9  16
BRANCH  14  17
ATOM     17  O2  UNL     1      49.021   5.476   5.312  0.00  0.00    -0.503 OA
ATOM     18  H7  UNL     1      49.442   4.603   5.317  0.00  0.00    +0.292 HD
ENDBRANCH  14  17
ENDBRANCH   1  11
BRANCH   8  19
ATOM     19  C14 UNL     1      42.363   7.738  12.497  0.00  0.00    -0.015 A 
ATOM     20  C15 UNL     1      43.042   8.217  13.631  0.00  0.00    +0.055 A 
ATOM     21  C16 UNL     1      42.363   8.474  14.827  0.00  0.00    +0.162 A 
ATOM     22  C17 UNL     1      40.979   8.256  14.875  0.00  0.00    +0.158 A 
ATOM     23  C18 UNL     1      40.287   7.784  13.762  0.00  0.00    +0.049 A 
ATOM     24  C19 UNL     1      40.978   7.526  12.577  0.00  0.00    +0.010 A 
BRANCH  22  25
ATOM     25  O5  UNL     1      40.302   8.511  16.038  0.00  0.00    -0.503 OA
ATOM     26  H19 UNL     1      40.129   7.674  16.495  0.00  0.00    +0.292 HD
ENDBRANCH  22  25
BRANCH  21  27
ATOM     27  O6  UNL     1      42.943   8.940  15.977  0.00  0.00    -0.491 OA
ATOM     28  C20 UNL     1      44.335   9.222  15.937  0.00  0.00    +0.277 C 
ENDBRANCH  21  27
ENDBRANCH   8  19
TORSDOF 6
ENDMDL
