MODEL 1
REMARK VINA RESULT:    -8.150      0.000      0.000
REMARK INTER + INTRA:          -9.656
REMARK INTER:                  -9.342
REMARK INTRA:                  -0.314
REMARK UNBOUND:                -0.314
REMARK  Name = data/mahkota_dewa_dn/results/docking/ligands/pdb/Apigenin.pdb
REMARK  4 active torsions:
REMARK  status: ('A' for Active; 'I' for Inactive)
REMARK    1  A    between atoms: C3_3  and  O5_20
REMARK    2  A    between atoms: C6_6  and  C7_7
REMARK    3  A    between atoms: C11_12  and  O4_19
REMARK    4  A    between atoms: C13_14  and  O3_18
REMARK                            x       y       z     vdW  Elec       q    Type
REMARK                         _______ _______ _______ _____ _____    ______ ____
ROOT
ATOM      1  C7  UNL     1      43.765   7.733  12.648  0.00  0.00    +0.139 A 
ATOM      2  C8  UNL     1      44.412   8.419  13.602  0.00  0.00    +0.098 A 
ATOM      3  C9  UNL     1      43.704   8.749  14.847  0.00  0.00    +0.197 A 
ATOM      4  O1  UNL     1      44.246   9.378  15.748  0.00  0.00    -0.287 OA
ATOM      5  C10 UNL     1      42.315   8.293  14.967  0.00  0.00    +0.105 A 
ATOM      6  C11 UNL     1      41.552   8.555  16.110  0.00  0.00    +0.135 A 
ATOM      7  C12 UNL     1      40.235   8.107  16.192  0.00  0.00    +0.091 A 
ATOM      8  C13 UNL     1      39.692   7.396  15.126  0.00  0.00    +0.124 A 
ATOM      9  C14 UNL     1      40.443   7.129  13.983  0.00  0.00    +0.092 A 
ATOM     10  C15 UNL     1      41.760   7.581  13.906  0.00  0.00    +0.146 A 
ATOM     11  O2  UNL     1      42.455   7.289  12.760  0.00  0.00    -0.454 OA
ENDROOT
BRANCH   1  17
ATOM     12  C1  UNL     1      43.687   6.712  10.374  0.00  0.00    +0.015 A 
ATOM     13  C2  UNL     1      44.287   6.358   9.160  0.00  0.00    +0.046 A 
ATOM     14  C3  UNL     1      45.626   6.660   8.948  0.00  0.00    +0.117 A 
ATOM     15  C4  UNL     1      46.371   7.310   9.923  0.00  0.00    +0.046 A 
ATOM     16  C5  UNL     1      45.771   7.663  11.134  0.00  0.00    +0.015 A 
ATOM     17  C6  UNL     1      44.422   7.360  11.380  0.00  0.00    +0.018 A 
BRANCH  14  18
ATOM     18  O5  UNL     1      46.252   6.336   7.782  0.00  0.00    -0.507 OA
ATOM     19  H10 UNL     1      45.604   5.931   7.182  0.00  0.00    +0.292 HD
ENDBRANCH  14  18
ENDBRANCH   1  17
BRANCH   8  20
ATOM     20  O3  UNL     1      38.409   6.937  15.160  0.00  0.00    -0.507 OA
ATOM     21  H8  UNL     1      38.329   6.280  15.873  0.00  0.00    +0.292 HD
ENDBRANCH   8  20
BRANCH   6  22
ATOM     22  O4  UNL     1      42.036   9.248  17.187  0.00  0.00    -0.506 OA
ATOM     23  H9  UNL     1      41.480   9.028  17.969  0.00  0.00    +0.292 HD
ENDBRANCH   6  22
TORSDOF 4
ENDMDL
MODEL 2
REMARK VINA RESULT:    -7.944     10.566     12.306
REMARK INTER + INTRA:          -9.420
REMARK INTER:                  -9.111
REMARK INTRA:                  -0.308
REMARK UNBOUND:                -0.314
REMARK  Name = data/mahkota_dewa_dn/results/docking/ligands/pdb/Apigenin.pdb
REMARK  4 active torsions:
REMARK  status: ('A' for Active; 'I' for Inactive)
REMARK    1  A    between atoms: C3_3  and  O5_20
REMARK    2  A    between atoms: C6_6  and  C7_7
REMARK    3  A    between atoms: C11_12  and  O4_19
REMARK    4  A    between atoms: C13_14  and  O3_18
REMARK                            x       y       z     vdW  Elec       q    Type
REMARK                         _______ _______ _______ _____ _____    ______ ____
ROOT
ATOM      1  C7  UNL     1      53.656  10.208   8.676  0.00  0.00    +0.139 A 
ATOM      2  C8  UNL     1      52.971   9.903   9.788  0.00  0.00    +0.098 A 
ATOM      3  C9  UNL     1      52.365  10.989  10.572  0.00  0.00    +0.197 A 
ATOM      4  O1  UNL     1      51.733  10.767  11.598  0.00  0.00    -0.287 OA
ATOM      5  C10 UNL     1      52.549  12.357  10.074  0.00  0.00    +0.105 A 
ATOM      6  C11 UNL     1      52.014  13.461  10.745  0.00  0.00    +0.135 A 
ATOM      7  C12 UNL     1      52.207  14.747  10.244  0.00  0.00    +0.091 A 
ATOM      8  C13 UNL     1      52.935  14.916   9.069  0.00  0.00    +0.124 A 
ATOM      9  C14 UNL     1      53.473  13.823   8.393  0.00  0.00    +0.092 A 
ATOM     10  C15 UNL     1      53.277  12.538   8.900  0.00  0.00    +0.146 A 
ATOM     11  O2  UNL     1      53.824  11.497   8.193  0.00  0.00    -0.454 OA
ENDROOT
BRANCH   1  17
ATOM     12  C1  UNL     1      55.341   9.495   6.981  0.00  0.00    +0.015 A 
ATOM     13  C2  UNL     1      55.953   8.520   6.186  0.00  0.00    +0.046 A 
ATOM     14  C3  UNL     1      55.506   7.206   6.253  0.00  0.00    +0.117 A 
ATOM     15  C4  UNL     1      54.465   6.852   7.102  0.00  0.00    +0.046 A 
ATOM     16  C5  UNL     1      53.855   7.826   7.895  0.00  0.00    +0.015 A 
ATOM     17  C6  UNL     1      54.279   9.164   7.839  0.00  0.00    +0.018 A 
BRANCH  14  18
ATOM     18  O5  UNL     1      56.072   6.223   5.498  0.00  0.00    -0.507 OA
ATOM     19  H10 UNL     1      56.058   5.393   6.005  0.00  0.00    +0.292 HD
ENDBRANCH  14  18
ENDBRANCH   1  17
BRANCH   8  20
ATOM     20  O3  UNL     1      53.151  16.154   8.541  0.00  0.00    -0.507 OA
ATOM     21  H8  UNL     1      52.331  16.460   8.117  0.00  0.00    +0.292 HD
ENDBRANCH   8  20
BRANCH   6  22
ATOM     22  O4  UNL     1      51.290  13.352  11.901  0.00  0.00    -0.506 OA
ATOM     23  H9  UNL     1      50.353  13.577  11.699  0.00  0.00    +0.292 HD
ENDBRANCH   6  22
TORSDOF 4
ENDMDL
MODEL 3
REMARK VINA RESULT:    -7.888      2.467      3.463
REMARK INTER + INTRA:          -9.355
REMARK INTER:                  -9.087
REMARK INTRA:                  -0.268
REMARK UNBOUND:                -0.314
REMARK  Name = data/mahkota_dewa_dn/results/docking/ligands/pdb/Apigenin.pdb
REMARK  4 active torsions:
REMARK  status: ('A' for Active; 'I' for Inactive)
REMARK    1  A    between atoms: C3_3  and  O5_20
REMARK    2  A    between atoms: C6_6  and  C7_7
REMARK    3  A    between atoms: C11_12  and  O4_19
REMARK    4  A    between atoms: C13_14  and  O3_18
REMARK                            x       y       z     vdW  Elec       q    Type
REMARK                         _______ _______ _______ _____ _____    ______ ____
ROOT
ATOM      1  C7  UNL     1      43.246   7.540  10.891  0.00  0.00    +0.139 A 
ATOM      2  C8  UNL     1      42.638   8.342  10.004  0.00  0.00    +0.098 A 
ATOM      3  C9  UNL     1      41.231   8.707  10.221  0.00  0.00    +0.197 A 
ATOM      4  O1  UNL     1      40.626   9.431   9.440  0.00  0.00    -0.287 OA
ATOM      5  C10 UNL     1      40.576   8.165  11.417  0.00  0.00    +0.105 A 
ATOM      6  C11 UNL     1      39.241   8.450  11.718  0.00  0.00    +0.135 A 
ATOM      7  C12 UNL     1      38.650   7.920  12.863  0.00  0.00    +0.091 A 
ATOM      8  C13 UNL     1      39.407   7.107  13.702  0.00  0.00    +0.124 A 
ATOM      9  C14 UNL     1      40.738   6.816  13.413  0.00  0.00    +0.092 A 
ATOM     10  C15 UNL     1      41.323   7.349  12.265  0.00  0.00    +0.146 A 
ATOM     11  O2  UNL     1      42.638   7.033  12.029  0.00  0.00    -0.454 OA
ENDROOT
BRANCH   1  17
ATOM     12  C1  UNL     1      44.981   5.890  10.191  0.00  0.00    +0.015 A 
ATOM     13  C2  UNL     1      46.314   5.498  10.026  0.00  0.00    +0.046 A 
ATOM     14  C3  UNL     1      47.332   6.367  10.400  0.00  0.00    +0.117 A 
ATOM     15  C4  UNL     1      47.040   7.616  10.932  0.00  0.00    +0.046 A 
ATOM     16  C5  UNL     1      45.709   8.006  11.096  0.00  0.00    +0.015 A 
ATOM     17  C6  UNL     1      44.660   7.144  10.735  0.00  0.00    +0.018 A 
BRANCH  14  18
ATOM     18  O5  UNL     1      48.644   6.029  10.258  0.00  0.00    -0.507 OA
ATOM     19  H10 UNL     1      49.073   6.069  11.129  0.00  0.00    +0.292 HD
ENDBRANCH  14  18
ENDBRANCH   1  17
BRANCH   8  20
ATOM     20  O3  UNL     1      38.873   6.565  14.833  0.00  0.00    -0.507 OA
ATOM     21  H8  UNL     1      38.055   6.094  14.600  0.00  0.00    +0.292 HD
ENDBRANCH   8  20
BRANCH   6  22
ATOM     22  O4  UNL     1      38.453   9.244  10.928  0.00  0.00    -0.506 OA
ATOM     23  H9  UNL     1      37.661   9.507  11.451  0.00  0.00    +0.292 HD
ENDBRANCH   6  22
TORSDOF 4
ENDMDL
MODEL 4
REMARK VINA RESULT:    -7.814      2.308      2.959
REMARK INTER + INTRA:          -9.271
REMARK INTER:                  -9.003
REMARK INTRA:                  -0.267
REMARK UNBOUND:                -0.314
REMARK  Name = data/mahkota_dewa_dn/results/docking/ligands/pdb/Apigenin.pdb
REMARK  4 active torsions:
REMARK  status: ('A' for Active; 'I' for Inactive)
REMARK    1  A    between atoms: C3_3  and  O5_20
REMARK    2  A    between atoms: C6_6  and  C7_7
REMARK    3  A    between atoms: C11_12  and  O4_19
REMARK    4  A    between atoms: C13_14  and  O3_18
REMARK                            x       y       z     vdW  Elec       q    Type
REMARK                         _______ _______ _______ _____ _____    ______ ____
ROOT
ATOM      1  C7  UNL     1      44.149   8.352  12.875  0.00  0.00    +0.139 A 
ATOM      2  C8  UNL     1      44.166   7.624  14.001  0.00  0.00    +0.098 A 
ATOM      3  C9  UNL     1      42.892   7.170  14.577  0.00  0.00    +0.197 A 
ATOM      4  O1  UNL     1      42.851   6.507  15.606  0.00  0.00    -0.287 OA
ATOM      5  C10 UNL     1      41.666   7.546  13.865  0.00  0.00    +0.105 A 
ATOM      6  C11 UNL     1      40.402   7.166  14.328  0.00  0.00    +0.135 A 
ATOM      7  C12 UNL     1      39.257   7.540  13.627  0.00  0.00    +0.091 A 
ATOM      8  C13 UNL     1      39.388   8.292  12.463  0.00  0.00    +0.124 A 
ATOM      9  C14 UNL     1      40.642   8.676  11.993  0.00  0.00    +0.092 A 
ATOM     10  C15 UNL     1      41.784   8.300  12.699  0.00  0.00    +0.146 A 
ATOM     11  O2  UNL     1      42.994   8.702  12.191  0.00  0.00    -0.454 OA
ENDROOT
BRANCH   1  17
ATOM     12  C1  UNL     1      45.927   8.141  11.139  0.00  0.00    +0.015 A 
ATOM     13  C2  UNL     1      47.100   8.580  10.517  0.00  0.00    +0.046 A 
ATOM     14  C3  UNL     1      47.741   9.717  10.993  0.00  0.00    +0.117 A 
ATOM     15  C4  UNL     1      47.227  10.421  12.075  0.00  0.00    +0.046 A 
ATOM     16  C5  UNL     1      46.056   9.982  12.695  0.00  0.00    +0.015 A 
ATOM     17  C6  UNL     1      45.393   8.829  12.241  0.00  0.00    +0.018 A 
BRANCH  14  18
ATOM     18  O5  UNL     1      48.885  10.183  10.419  0.00  0.00    -0.507 OA
ATOM     19  H10 UNL     1      49.619  10.065  11.045  0.00  0.00    +0.292 HD
ENDBRANCH  14  18
ENDBRANCH   1  17
BRANCH   8  20
ATOM     20  O3  UNL     1      38.298   8.681  11.744  0.00  0.00    -0.507 OA
ATOM     21  H8  UNL     1      37.653   7.953  11.733  0.00  0.00    +0.292 HD
ENDBRANCH   8  20
BRANCH   6  22
ATOM     22  O4  UNL     1      40.215   6.427  15.464  0.00  0.00    -0.506 OA
ATOM     23  H9  UNL     1      40.874   5.695  15.466  0.00  0.00    +0.292 HD
ENDBRANCH   6  22
TORSDOF 4
ENDMDL
MODEL 5
REMARK VINA RESULT:    -7.801      2.259      3.113
REMARK INTER + INTRA:          -9.256
REMARK INTER:                  -8.993
REMARK INTRA:                  -0.263
REMARK UNBOUND:                -0.314
REMARK  Name = data/mahkota_dewa_dn/results/docking/ligands/pdb/Apigenin.pdb
REMARK  4 active torsions:
REMARK  status: ('A' for Active; 'I' for Inactive)
REMARK    1  A    between atoms: C3_3  and  O5_20
REMARK    2  A    between atoms: C6_6  and  C7_7
REMARK    3  A    between atoms: C11_12  and  O4_19
REMARK    4  A    between atoms: C13_14  and  O3_18
REMARK                            x       y       z     vdW  Elec       q    Type
REMARK                         _______ _______ _______ _____ _____    ______ ____
ROOT
ATOM      1  C7  UNL     1      43.906   8.620  12.707  0.00  0.00    +0.139 A 
ATOM      2  C8  UNL     1      42.809   9.167  12.161  0.00  0.00    +0.098 A 
ATOM      3  C9  UNL     1      41.496   8.866  12.748  0.00  0.00    +0.197 A 
ATOM      4  O1  UNL     1      40.462   9.334  12.287  0.00  0.00    -0.287 OA
ATOM      5  C10 UNL     1      41.472   7.977  13.915  0.00  0.00    +0.105 A 
ATOM      6  C11 UNL     1      40.276   7.627  14.549  0.00  0.00    +0.135 A 
ATOM      7  C12 UNL     1      40.290   6.781  15.656  0.00  0.00    +0.091 A 
ATOM      8  C13 UNL     1      41.507   6.293  16.122  0.00  0.00    +0.124 A 
ATOM      9  C14 UNL     1      42.705   6.635  15.499  0.00  0.00    +0.092 A 
ATOM     10  C15 UNL     1      42.685   7.481  14.391  0.00  0.00    +0.146 A 
ATOM     11  O2  UNL     1      43.893   7.789  13.817  0.00  0.00    -0.454 OA
ENDROOT
BRANCH   1  17
ATOM     12  C1  UNL     1      45.790   8.064  11.170  0.00  0.00    +0.015 A 
ATOM     13  C2  UNL     1      47.062   8.307  10.641  0.00  0.00    +0.046 A 
ATOM     14  C3  UNL     1      47.801   9.385  11.110  0.00  0.00    +0.117 A 
ATOM     15  C4  UNL     1      47.290  10.223  12.093  0.00  0.00    +0.046 A 
ATOM     16  C5  UNL     1      46.020   9.980  12.620  0.00  0.00    +0.015 A 
ATOM     17  C6  UNL     1      45.255   8.891  12.171  0.00  0.00    +0.018 A 
BRANCH  14  18
ATOM     18  O5  UNL     1      49.044   9.661  10.625  0.00  0.00    -0.507 OA
ATOM     19  H10 UNL     1      49.525  10.192  11.282  0.00  0.00    +0.292 HD
ENDBRANCH  14  18
ENDBRANCH   1  17
BRANCH   8  20
ATOM     20  O3  UNL     1      41.571   5.462  17.201  0.00  0.00    -0.507 OA
ATOM     21  H8  UNL     1      42.196   4.743  17.007  0.00  0.00    +0.292 HD
ENDBRANCH   8  20
BRANCH   6  22
ATOM     22  O4  UNL     1      39.052   8.079  14.133  0.00  0.00    -0.506 OA
ATOM     23  H9  UNL     1      38.359   7.543  14.580  0.00  0.00    +0.292 HD
ENDBRANCH   6  22
TORSDOF 4
ENDMDL
MODEL 6
REMARK VINA RESULT:    -7.724      8.051     10.848
REMARK INTER + INTRA:          -9.167
REMARK INTER:                  -8.852
REMARK INTRA:                  -0.315
REMARK UNBOUND:                -0.314
REMARK  Name = data/mahkota_dewa_dn/results/docking/ligands/pdb/Apigenin.pdb
REMARK  4 active torsions:
REMARK  status: ('A' for Active; 'I' for Inactive)
REMARK    1  A    between atoms: C3_3  and  O5_20
REMARK    2  A    between atoms: C6_6  and  C7_7
REMARK    3  A    between atoms: C11_12  and  O4_19
REMARK    4  A    between atoms: C13_14  and  O3_18
REMARK                            x       y       z     vdW  Elec       q    Type
REMARK                         _______ _______ _______ _____ _____    ______ ____
ROOT
ATOM      1  C7  UNL     1      53.518   9.891   8.864  0.00  0.00    +0.139 A 
ATOM      2  C8  UNL     1      53.714  11.213   8.981  0.00  0.00    +0.098 A 
ATOM      3  C9  UNL     1      52.933  11.964   9.973  0.00  0.00    +0.197 A 
ATOM      4  O1  UNL     1      53.069  13.173  10.118  0.00  0.00    -0.287 OA
ATOM      5  C10 UNL     1      51.979  11.204  10.788  0.00  0.00    +0.105 A 
ATOM      6  C11 UNL     1      51.187  11.823  11.761  0.00  0.00    +0.135 A 
ATOM      7  C12 UNL     1      50.291  11.071  12.518  0.00  0.00    +0.091 A 
ATOM      8  C13 UNL     1      50.198   9.700  12.296  0.00  0.00    +0.124 A 
ATOM      9  C14 UNL     1      50.982   9.073  11.330  0.00  0.00    +0.092 A 
ATOM     10  C15 UNL     1      51.876   9.831  10.574  0.00  0.00    +0.146 A 
ATOM     11  O2  UNL     1      52.626   9.164   9.639  0.00  0.00    -0.454 OA
ENDROOT
BRANCH   1  17
ATOM     12  C1  UNL     1      54.015   7.703   7.776  0.00  0.00    +0.015 A 
ATOM     13  C2  UNL     1      54.715   6.914   6.857  0.00  0.00    +0.046 A 
ATOM     14  C3  UNL     1      55.678   7.503   6.047  0.00  0.00    +0.117 A 
ATOM     15  C4  UNL     1      55.948   8.862   6.138  0.00  0.00    +0.046 A 
ATOM     16  C5  UNL     1      55.248   9.648   7.056  0.00  0.00    +0.015 A 
ATOM     17  C6  UNL     1      54.277   9.077   7.894  0.00  0.00    +0.018 A 
BRANCH  14  18
ATOM     18  O5  UNL     1      56.385   6.775   5.137  0.00  0.00    -0.507 OA
ATOM     19  H10 UNL     1      55.808   6.080   4.777  0.00  0.00    +0.292 HD
ENDBRANCH  14  18
ENDBRANCH   1  17
BRANCH   8  20
ATOM     20  O3  UNL     1      49.336   8.923  13.011  0.00  0.00    -0.507 OA
ATOM     21  H8  UNL     1      48.453   9.329  12.987  0.00  0.00    +0.292 HD
ENDBRANCH   8  20
BRANCH   6  22
ATOM     22  O4  UNL     1      51.240  13.166  12.022  0.00  0.00    -0.506 OA
ATOM     23  H9  UNL     1      52.150  13.384  12.325  0.00  0.00    +0.292 HD
ENDBRANCH   6  22
TORSDOF 4
ENDMDL
MODEL 7
REMARK VINA RESULT:    -7.715      3.163      5.175
REMARK INTER + INTRA:          -9.157
REMARK INTER:                  -8.856
REMARK INTRA:                  -0.301
REMARK UNBOUND:                -0.314
REMARK  Name = data/mahkota_dewa_dn/results/docking/ligands/pdb/Apigenin.pdb
REMARK  4 active torsions:
REMARK  status: ('A' for Active; 'I' for Inactive)
REMARK    1  A    between atoms: C3_3  and  O5_20
REMARK    2  A    between atoms: C6_6  and  C7_7
REMARK    3  A    between atoms: C11_12  and  O4_19
REMARK    4  A    between atoms: C13_14  and  O3_18
REMARK                            x       y       z     vdW  Elec       q    Type
REMARK                         _______ _______ _______ _____ _____    ______ ____
ROOT
ATOM      1  C7  UNL     1      45.963   8.232  11.096  0.00  0.00    +0.139 A 
ATOM      2  C8  UNL     1      45.795   7.227  10.223  0.00  0.00    +0.098 A 
ATOM      3  C9  UNL     1      44.431   6.806   9.874  0.00  0.00    +0.197 A 
ATOM      4  O1  UNL     1      44.222   5.891   9.086  0.00  0.00    -0.287 OA
ATOM      5  C10 UNL     1      43.325   7.529  10.510  0.00  0.00    +0.105 A 
ATOM      6  C11 UNL     1      41.989   7.208  10.247  0.00  0.00    +0.135 A 
ATOM      7  C12 UNL     1      40.962   7.916  10.868  0.00  0.00    +0.091 A 
ATOM      8  C13 UNL     1      41.283   8.945  11.749  0.00  0.00    +0.124 A 
ATOM      9  C14 UNL     1      42.610   9.274  12.018  0.00  0.00    +0.092 A 
ATOM     10  C15 UNL     1      43.633   8.561  11.394  0.00  0.00    +0.146 A 
ATOM     11  O2  UNL     1      44.922   8.927  11.692  0.00  0.00    -0.454 OA
ENDROOT
BRANCH   1  17
ATOM     12  C1  UNL     1      48.388   7.813  11.502  0.00  0.00    +0.015 A 
ATOM     13  C2  UNL     1      49.671   8.245  11.854  0.00  0.00    +0.046 A 
ATOM     14  C3  UNL     1      49.876   9.580  12.180  0.00  0.00    +0.117 A 
ATOM     15  C4  UNL     1      48.824  10.487  12.156  0.00  0.00    +0.046 A 
ATOM     16  C5  UNL     1      47.544  10.054  11.804  0.00  0.00    +0.015 A 
ATOM     17  C6  UNL     1      47.306   8.709  11.480  0.00  0.00    +0.018 A 
BRANCH  14  18
ATOM     18  O5  UNL     1      51.108  10.047  12.528  0.00  0.00    -0.507 OA
ATOM     19  H10 UNL     1      51.610  10.236  11.718  0.00  0.00    +0.292 HD
ENDBRANCH  14  18
ENDBRANCH   1  17
BRANCH   8  20
ATOM     20  O3  UNL     1      40.313   9.666  12.380  0.00  0.00    -0.507 OA
ATOM     21  H8  UNL     1      40.091   9.226  13.218  0.00  0.00    +0.292 HD
ENDBRANCH   8  20
BRANCH   6  22
ATOM     22  O4  UNL     1      41.618   6.208   9.389  0.00  0.00    -0.506 OA
ATOM     23  H9  UNL     1      41.002   5.607   9.867  0.00  0.00    +0.292 HD
ENDBRANCH   6  22
TORSDOF 4
ENDMDL
MODEL 8
REMARK VINA RESULT:    -7.676      2.101      7.087
REMARK INTER + INTRA:          -9.112
REMARK INTER:                  -8.801
REMARK INTRA:                  -0.310
REMARK UNBOUND:                -0.314
REMARK  Name = data/mahkota_dewa_dn/results/docking/ligands/pdb/Apigenin.pdb
REMARK  4 active torsions:
REMARK  status: ('A' for Active; 'I' for Inactive)
REMARK    1  A    between atoms: C3_3  and  O5_20
REMARK    2  A    between atoms: C6_6  and  C7_7
REMARK    3  A    between atoms: C11_12  and  O4_19
REMARK    4  A    between atoms: C13_14  and  O3_18
REMARK                            x       y       z     vdW  Elec       q    Type
REMARK                         _______ _______ _______ _____ _____    ______ ____
ROOT
ATOM      1  C7  UNL     1      43.469   8.162  13.029  0.00  0.00    +0.139 A 
ATOM      2  C8  UNL     1      42.476   7.594  12.329  0.00  0.00    +0.098 A 
ATOM      3  C9  UNL     1      42.772   7.019  11.009  0.00  0.00    +0.197 A 
ATOM      4  O1  UNL     1      41.901   6.494  10.326  0.00  0.00    -0.287 OA
ATOM      5  C10 UNL     1      44.159   7.102  10.539  0.00  0.00    +0.105 A 
ATOM      6  C11 UNL     1      44.547   6.586   9.299  0.00  0.00    +0.135 A 
ATOM      7  C12 UNL     1      45.874   6.680   8.884  0.00  0.00    +0.091 A 
ATOM      8  C13 UNL     1      46.805   7.291   9.720  0.00  0.00    +0.124 A 
ATOM      9  C14 UNL     1      46.430   7.807  10.958  0.00  0.00    +0.092 A 
ATOM     10  C15 UNL     1      45.101   7.711  11.367  0.00  0.00    +0.146 A 
ATOM     11  O2  UNL     1      44.785   8.233  12.596  0.00  0.00    -0.454 OA
ENDROOT
BRANCH   1  17
ATOM     12  C1  UNL     1      41.931   9.017  14.796  0.00  0.00    +0.015 A 
ATOM     13  C2  UNL     1      41.690   9.563  16.061  0.00  0.00    +0.046 A 
ATOM     14  C3  UNL     1      42.761   9.835  16.903  0.00  0.00    +0.117 A 
ATOM     15  C4  UNL     1      44.064   9.568  16.502  0.00  0.00    +0.046 A 
ATOM     16  C5  UNL     1      44.304   9.023  15.239  0.00  0.00    +0.015 A 
ATOM     17  C6  UNL     1      43.240   8.747  14.364  0.00  0.00    +0.018 A 
BRANCH  14  18
ATOM     18  O5  UNL     1      42.575  10.366  18.143  0.00  0.00    -0.507 OA
ATOM     19  H10 UNL     1      41.626  10.529  18.274  0.00  0.00    +0.292 HD
ENDBRANCH  14  18
ENDBRANCH   1  17
BRANCH   8  20
ATOM     20  O3  UNL     1      48.114   7.406   9.357  0.00  0.00    -0.507 OA
ATOM     21  H8  UNL     1      48.159   7.639   8.414  0.00  0.00    +0.292 HD
ENDBRANCH   8  20
BRANCH   6  22
ATOM     22  O4  UNL     1      43.674   5.976   8.439  0.00  0.00    -0.506 OA
ATOM     23  H9  UNL     1      42.909   5.646   8.962  0.00  0.00    +0.292 HD
ENDBRANCH   6  22
TORSDOF 4
ENDMDL
MODEL 9
REMARK VINA RESULT:    -7.461      2.771      3.888
REMARK INTER + INTRA:          -8.866
REMARK INTER:                  -8.565
REMARK INTRA:                  -0.301
REMARK UNBOUND:                -0.314
REMARK  Name = data/mahkota_dewa_dn/results/docking/ligands/pdb/Apigenin.pdb
REMARK  4 active torsions:
REMARK  status: ('A' for Active; 'I' for Inactive)
REMARK    1  A    between atoms: C3_3  and  O5_20
REMARK    2  A    between atoms: C6_6  and  C7_7
REMARK    3  A    between atoms: C11_12  and  O4_19
REMARK    4  A    between atoms: C13_14  and  O3_18
REMARK                            x       y       z     vdW  Elec       q    Type
REMARK                         _______ _______ _______ _____ _____    ______ ____
ROOT
ATOM      1  C7  UNL     1      44.351   8.274  12.052  0.00  0.00    +0.139 A 
ATOM      2  C8  UNL     1      43.815   8.245  13.282  0.00  0.00    +0.098 A 
ATOM      3  C9  UNL     1      42.358   8.371  13.427  0.00  0.00    +0.197 A 
ATOM      4  O1  UNL     1      41.817   8.357  14.527  0.00  0.00    -0.287 OA
ATOM      5  C10 UNL     1      41.573   8.518  12.197  0.00  0.00    +0.105 A 
ATOM      6  C11 UNL     1      40.181   8.645  12.224  0.00  0.00    +0.135 A 
ATOM      7  C12 UNL     1      39.465   8.782  11.036  0.00  0.00    +0.091 A 
ATOM      8  C13 UNL     1      40.154   8.787   9.826  0.00  0.00    +0.124 A 
ATOM      9  C14 UNL     1      41.540   8.660   9.787  0.00  0.00    +0.092 A 
ATOM     10  C15 UNL     1      42.251   8.525  10.979  0.00  0.00    +0.146 A 
ATOM     11  O2  UNL     1      43.614   8.401  10.884  0.00  0.00    -0.454 OA
ENDROOT
BRANCH   1  17
ATOM     12  C1  UNL     1      46.703   8.627  12.802  0.00  0.00    +0.015 A 
ATOM     13  C2  UNL     1      48.085   8.504  12.624  0.00  0.00    +0.046 A 
ATOM     14  C3  UNL     1      48.573   7.887  11.479  0.00  0.00    +0.117 A 
ATOM     15  C4  UNL     1      47.705   7.391  10.515  0.00  0.00    +0.046 A 
ATOM     16  C5  UNL     1      46.326   7.514  10.694  0.00  0.00    +0.015 A 
ATOM     17  C6  UNL     1      45.805   8.142  11.837  0.00  0.00    +0.018 A 
BRANCH  14  18
ATOM     18  O5  UNL     1      49.911   7.745  11.262  0.00  0.00    -0.507 OA
ATOM     19  H10 UNL     1      50.213   6.932  11.701  0.00  0.00    +0.292 HD
ENDBRANCH  14  18
ENDBRANCH   1  17
BRANCH   8  20
ATOM     20  O3  UNL     1      39.498   8.917   8.638  0.00  0.00    -0.507 OA
ATOM     21  H8  UNL     1      40.149   9.083   7.936  0.00  0.00    +0.292 HD
ENDBRANCH   8  20
BRANCH   6  22
ATOM     22  O4  UNL     1      39.454   8.645  13.384  0.00  0.00    -0.506 OA
ATOM     23  H9  UNL     1      38.667   8.070  13.254  0.00  0.00    +0.292 HD
ENDBRANCH   6  22
TORSDOF 4
ENDMDL
