MODEL 1
REMARK VINA RESULT:    -5.739      0.000      0.000
REMARK INTER + INTRA:          -6.802
REMARK INTER:                  -6.746
REMARK INTRA:                  -0.057
REMARK UNBOUND:                -0.057
REMARK  Name = data/mahkota_dewa_dn/results/docking/ligands/pdb/Gallic_acid.pdb
REMARK  5 active torsions:
REMARK  status: ('A' for Active; 'I' for Inactive)
REMARK    1  A    between atoms: C2_2  and  C7_10
REMARK    2  A    between atoms: C4_4  and  O3_9
REMARK    3  A    between atoms: C5_5  and  O2_8
REMARK    4  A    between atoms: C6_6  and  O1_7
REMARK    5  A    between atoms: C7_10  and  O5_12
REMARK                            x       y       z     vdW  Elec       q    Type
REMARK                         _______ _______ _______ _____ _____    ______ ____
ROOT
ATOM      1  C1  UNL     1      54.828  18.184  21.071  0.00  0.00    +0.064 A 
ATOM      2  C2  UNL     1      53.825  18.373  20.106  0.00  0.00    +0.066 A 
ATOM      3  C3  UNL     1      53.942  19.398  19.154  0.00  0.00    +0.064 A 
ATOM      4  C4  UNL     1      55.061  20.221  19.182  0.00  0.00    +0.163 A 
ATOM      5  C5  UNL     1      56.059  20.035  20.139  0.00  0.00    +0.201 A 
ATOM      6  C6  UNL     1      55.944  19.019  21.084  0.00  0.00    +0.163 A 
ENDROOT
BRANCH   6   7
ATOM      7  O1  UNL     1      56.928  18.849  22.015  0.00  0.00    -0.503 OA
ATOM      8  H3  UNL     1      57.366  19.697  22.184  0.00  0.00    +0.292 HD
ENDBRANCH   6   7
BRANCH   5   9
ATOM      9  O2  UNL     1      57.146  20.865  20.135  0.00  0.00    -0.501 OA
ATOM     10  H4  UNL     1      57.914  20.274  20.017  0.00  0.00    +0.292 HD
ENDBRANCH   5   9
BRANCH   4  11
ATOM     11  O3  UNL     1      55.229  21.236  18.279  0.00  0.00    -0.503 OA
ATOM     12  H5  UNL     1      55.758  21.939  18.695  0.00  0.00    +0.292 HD
ENDBRANCH   4  11
BRANCH   2  13
ATOM     13  C7  UNL     1      52.657  17.461  20.132  0.00  0.00    +0.337 C 
ATOM     14  O4  UNL     1      52.589  16.410  20.740  0.00  0.00    -0.245 OA
BRANCH  13  15
ATOM     15  O5  UNL     1      51.628  17.911  19.393  0.00  0.00    -0.477 OA
ATOM     16  H6  UNL     1      51.885  17.686  18.473  0.00  0.00    +0.295 HD
ENDBRANCH  13  15
ENDBRANCH   2  13
TORSDOF 5
ENDMDL
MODEL 2
REMARK VINA RESULT:    -5.699     10.940     12.472
REMARK INTER + INTRA:          -6.755
REMARK INTER:                  -6.696
REMARK INTRA:                  -0.059
REMARK UNBOUND:                -0.057
REMARK  Name = data/mahkota_dewa_dn/results/docking/ligands/pdb/Gallic_acid.pdb
REMARK  5 active torsions:
REMARK  status: ('A' for Active; 'I' for Inactive)
REMARK    1  A    between atoms: C2_2  and  C7_10
REMARK    2  A    between atoms: C4_4  and  O3_9
REMARK    3  A    between atoms: C5_5  and  O2_8
REMARK    4  A    between atoms: C6_6  and  O1_7
REMARK    5  A    between atoms: C7_10  and  O5_12
REMARK                            x       y       z     vdW  Elec       q    Type
REMARK                         _______ _______ _______ _____ _____    ______ ____
ROOT
ATOM      1  C1  UNL     1      51.925  13.028   8.906  0.00  0.00    +0.064 A 
ATOM      2  C2  UNL     1      52.769  14.148   9.000  0.00  0.00    +0.066 A 
ATOM      3  C3  UNL     1      52.975  14.779  10.235  0.00  0.00    +0.064 A 
ATOM      4  C4  UNL     1      52.331  14.282  11.363  0.00  0.00    +0.163 A 
ATOM      5  C5  UNL     1      51.492  13.171  11.273  0.00  0.00    +0.201 A 
ATOM      6  C6  UNL     1      51.288  12.544  10.047  0.00  0.00    +0.163 A 
ENDROOT
BRANCH   6   7
ATOM      7  O1  UNL     1      50.465  11.457   9.973  0.00  0.00    -0.503 OA
ATOM      8  H3  UNL     1      50.869  10.711  10.441  0.00  0.00    +0.292 HD
ENDBRANCH   6   7
BRANCH   5   9
ATOM      9  O2  UNL     1      50.876  12.711  12.404  0.00  0.00    -0.501 OA
ATOM     10  H4  UNL     1      51.524  12.855  13.120  0.00  0.00    +0.292 HD
ENDBRANCH   5   9
BRANCH   4  11
ATOM     11  O3  UNL     1      52.493  14.857  12.595  0.00  0.00    -0.503 OA
ATOM     12  H5  UNL     1      51.616  15.071  12.956  0.00  0.00    +0.292 HD
ENDBRANCH   4  11
BRANCH   2  13
ATOM     13  C7  UNL     1      53.425  14.627   7.760  0.00  0.00    +0.337 C 
ATOM     14  O4  UNL     1      54.083  15.645   7.651  0.00  0.00    -0.245 OA
BRANCH  13  15
ATOM     15  O5  UNL     1      53.224  13.807   6.713  0.00  0.00    -0.477 OA
ATOM     16  H6  UNL     1      54.131  13.559   6.433  0.00  0.00    +0.295 HD
ENDBRANCH  13  15
ENDBRANCH   2  13
TORSDOF 5
ENDMDL
MODEL 3
REMARK VINA RESULT:    -5.677     10.910     12.387
REMARK INTER + INTRA:          -6.729
REMARK INTER:                  -6.672
REMARK INTRA:                  -0.057
REMARK UNBOUND:                -0.057
REMARK  Name = data/mahkota_dewa_dn/results/docking/ligands/pdb/Gallic_acid.pdb
REMARK  5 active torsions:
REMARK  status: ('A' for Active; 'I' for Inactive)
REMARK    1  A    between atoms: C2_2  and  C7_10
REMARK    2  A    between atoms: C4_4  and  O3_9
REMARK    3  A    between atoms: C5_5  and  O2_8
REMARK    4  A    between atoms: C6_6  and  O1_7
REMARK    5  A    between atoms: C7_10  and  O5_12
REMARK                            x       y       z     vdW  Elec       q    Type
REMARK                         _______ _______ _______ _____ _____    ______ ____
ROOT
ATOM      1  C1  UNL     1      53.033  14.726  10.254  0.00  0.00    +0.064 A 
ATOM      2  C2  UNL     1      52.769  14.146   9.002  0.00  0.00    +0.066 A 
ATOM      3  C3  UNL     1      51.879  13.067   8.894  0.00  0.00    +0.064 A 
ATOM      4  C4  UNL     1      51.265  12.580  10.043  0.00  0.00    +0.163 A 
ATOM      5  C5  UNL     1      51.525  13.155  11.287  0.00  0.00    +0.201 A 
ATOM      6  C6  UNL     1      52.408  14.226  11.394  0.00  0.00    +0.163 A 
ENDROOT
BRANCH   6   7
ATOM      7  O1  UNL     1      52.653  14.779  12.619  0.00  0.00    -0.503 OA
ATOM      8  H3  UNL     1      53.556  14.561  12.898  0.00  0.00    +0.292 HD
ENDBRANCH   6   7
BRANCH   5   9
ATOM      9  O2  UNL     1      50.902  12.650  12.395  0.00  0.00    -0.501 OA
ATOM     10  H4  UNL     1      51.437  12.962  13.150  0.00  0.00    +0.292 HD
ENDBRANCH   5   9
BRANCH   4  11
ATOM     11  O3  UNL     1      50.389  11.530   9.999  0.00  0.00    -0.503 OA
ATOM     12  H5  UNL     1      50.884  10.720   9.785  0.00  0.00    +0.292 HD
ENDBRANCH   4  11
BRANCH   2  13
ATOM     13  C7  UNL     1      53.457  14.711   7.817  0.00  0.00    +0.337 C 
ATOM     14  O4  UNL     1      54.056  15.770   7.780  0.00  0.00    -0.245 OA
BRANCH  13  15
ATOM     15  O5  UNL     1      53.361  13.922   6.732  0.00  0.00    -0.477 OA
ATOM     16  H6  UNL     1      53.136  13.042   7.103  0.00  0.00    +0.295 HD
ENDBRANCH  13  15
ENDBRANCH   2  13
TORSDOF 5
ENDMDL
MODEL 4
REMARK VINA RESULT:    -5.582     16.126     18.515
REMARK INTER + INTRA:          -6.618
REMARK INTER:                  -6.569
REMARK INTRA:                  -0.049
REMARK UNBOUND:                -0.057
REMARK  Name = data/mahkota_dewa_dn/results/docking/ligands/pdb/Gallic_acid.pdb
REMARK  5 active torsions:
REMARK  status: ('A' for Active; 'I' for Inactive)
REMARK    1  A    between atoms: C2_2  and  C7_10
REMARK    2  A    between atoms: C4_4  and  O3_9
REMARK    3  A    between atoms: C5_5  and  O2_8
REMARK    4  A    between atoms: C6_6  and  O1_7
REMARK    5  A    between atoms: C7_10  and  O5_12
REMARK                            x       y       z     vdW  Elec       q    Type
REMARK                         _______ _______ _______ _____ _____    ______ ____
ROOT
ATOM      1  C1  UNL     1      42.280   6.561  15.945  0.00  0.00    +0.064 A 
ATOM      2  C2  UNL     1      42.843   7.366  14.941  0.00  0.00    +0.066 A 
ATOM      3  C3  UNL     1      42.018   8.081  14.060  0.00  0.00    +0.064 A 
ATOM      4  C4  UNL     1      40.638   7.980  14.194  0.00  0.00    +0.163 A 
ATOM      5  C5  UNL     1      40.076   7.181  15.190  0.00  0.00    +0.201 A 
ATOM      6  C6  UNL     1      40.895   6.471  16.065  0.00  0.00    +0.163 A 
ENDROOT
BRANCH   6   7
ATOM      7  O1  UNL     1      40.331   5.693  17.035  0.00  0.00    -0.503 OA
ATOM      8  H3  UNL     1      39.590   5.193  16.661  0.00  0.00    +0.292 HD
ENDBRANCH   6   7
BRANCH   5   9
ATOM      9  O2  UNL     1      38.714   7.106  15.292  0.00  0.00    -0.501 OA
ATOM     10  H4  UNL     1      38.550   6.481  16.024  0.00  0.00    +0.292 HD
ENDBRANCH   5   9
BRANCH   4  11
ATOM     11  O3  UNL     1      39.784   8.654  13.364  0.00  0.00    -0.503 OA
ATOM     12  H5  UNL     1      39.502   8.052  12.652  0.00  0.00    +0.292 HD
ENDBRANCH   4  11
BRANCH   2  13
ATOM     13  C7  UNL     1      44.321   7.430  14.851  0.00  0.00    +0.337 C 
ATOM     14  O4  UNL     1      44.992   7.077  13.899  0.00  0.00    -0.245 OA
BRANCH  13  15
ATOM     15  O5  UNL     1      44.890   7.934  15.961  0.00  0.00    -0.477 OA
ATOM     16  H6  UNL     1      45.808   8.137  15.681  0.00  0.00    +0.295 HD
ENDBRANCH  13  15
ENDBRANCH   2  13
TORSDOF 5
ENDMDL
MODEL 5
REMARK VINA RESULT:    -5.531     16.128     18.661
REMARK INTER + INTRA:          -6.558
REMARK INTER:                  -6.508
REMARK INTRA:                  -0.049
REMARK UNBOUND:                -0.057
REMARK  Name = data/mahkota_dewa_dn/results/docking/ligands/pdb/Gallic_acid.pdb
REMARK  5 active torsions:
REMARK  status: ('A' for Active; 'I' for Inactive)
REMARK    1  A    between atoms: C2_2  and  C7_10
REMARK    2  A    between atoms: C4_4  and  O3_9
REMARK    3  A    between atoms: C5_5  and  O2_8
REMARK    4  A    between atoms: C6_6  and  O1_7
REMARK    5  A    between atoms: C7_10  and  O5_12
REMARK                            x       y       z     vdW  Elec       q    Type
REMARK                         _______ _______ _______ _____ _____    ______ ____
ROOT
ATOM      1  C1  UNL     1      42.019   8.090  14.018  0.00  0.00    +0.064 A 
ATOM      2  C2  UNL     1      42.834   7.386  14.920  0.00  0.00    +0.066 A 
ATOM      3  C3  UNL     1      42.260   6.597  15.928  0.00  0.00    +0.064 A 
ATOM      4  C4  UNL     1      40.875   6.525  16.023  0.00  0.00    +0.163 A 
ATOM      5  C5  UNL     1      40.063   7.223  15.130  0.00  0.00    +0.201 A 
ATOM      6  C6  UNL     1      40.632   8.006  14.128  0.00  0.00    +0.163 A 
ENDROOT
BRANCH   6   7
ATOM      7  O1  UNL     1      39.825   8.684  13.261  0.00  0.00    -0.503 OA
ATOM      8  H3  UNL     1      38.906   8.396  13.380  0.00  0.00    +0.292 HD
ENDBRANCH   6   7
BRANCH   5   9
ATOM      9  O2  UNL     1      38.704   7.128  15.254  0.00  0.00    -0.501 OA
ATOM     10  H4  UNL     1      38.524   6.170  15.320  0.00  0.00    +0.292 HD
ENDBRANCH   5   9
BRANCH   4  11
ATOM     11  O3  UNL     1      40.260   5.772  16.987  0.00  0.00    -0.503 OA
ATOM     12  H5  UNL     1      40.644   6.000  17.851  0.00  0.00    +0.292 HD
ENDBRANCH   4  11
BRANCH   2  13
ATOM     13  C7  UNL     1      44.304   7.506  14.764  0.00  0.00    +0.337 C 
ATOM     14  O4  UNL     1      44.932   7.280  13.747  0.00  0.00    -0.245 OA
BRANCH  13  15
ATOM     15  O5  UNL     1      44.917   7.903  15.893  0.00  0.00    -0.477 OA
ATOM     16  H6  UNL     1      44.325   8.600  16.248  0.00  0.00    +0.295 HD
ENDBRANCH  13  15
ENDBRANCH   2  13
TORSDOF 5
ENDMDL
MODEL 6
REMARK VINA RESULT:    -5.169     15.593     17.493
REMARK INTER + INTRA:          -6.132
REMARK INTER:                  -6.078
REMARK INTRA:                  -0.054
REMARK UNBOUND:                -0.057
REMARK  Name = data/mahkota_dewa_dn/results/docking/ligands/pdb/Gallic_acid.pdb
REMARK  5 active torsions:
REMARK  status: ('A' for Active; 'I' for Inactive)
REMARK    1  A    between atoms: C2_2  and  C7_10
REMARK    2  A    between atoms: C4_4  and  O3_9
REMARK    3  A    between atoms: C5_5  and  O2_8
REMARK    4  A    between atoms: C6_6  and  O1_7
REMARK    5  A    between atoms: C7_10  and  O5_12
REMARK                            x       y       z     vdW  Elec       q    Type
REMARK                         _______ _______ _______ _____ _____    ______ ____
ROOT
ATOM      1  C1  UNL     1      42.706   7.636  14.475  0.00  0.00    +0.064 A 
ATOM      2  C2  UNL     1      43.787   8.364  13.951  0.00  0.00    +0.066 A 
ATOM      3  C3  UNL     1      43.571   9.353  12.980  0.00  0.00    +0.064 A 
ATOM      4  C4  UNL     1      42.274   9.600  12.544  0.00  0.00    +0.163 A 
ATOM      5  C5  UNL     1      41.199   8.879  13.063  0.00  0.00    +0.201 A 
ATOM      6  C6  UNL     1      41.413   7.898  14.027  0.00  0.00    +0.163 A 
ENDROOT
BRANCH   6   7
ATOM      7  O1  UNL     1      40.351   7.199  14.526  0.00  0.00    -0.503 OA
ATOM      8  H3  UNL     1      40.537   6.934  15.440  0.00  0.00    +0.292 HD
ENDBRANCH   6   7
BRANCH   5   9
ATOM      9  O2  UNL     1      39.937   9.151  12.610  0.00  0.00    -0.501 OA
ATOM     10  H4  UNL     1      39.345   8.629  13.186  0.00  0.00    +0.292 HD
ENDBRANCH   5   9
BRANCH   4  11
ATOM     11  O3  UNL     1      42.004  10.553  11.599  0.00  0.00    -0.503 OA
ATOM     12  H5  UNL     1      42.713  11.218  11.616  0.00  0.00    +0.292 HD
ENDBRANCH   4  11
BRANCH   2  13
ATOM     13  C7  UNL     1      45.144   8.051  14.458  0.00  0.00    +0.337 C 
ATOM     14  O4  UNL     1      46.160   8.004  13.789  0.00  0.00    -0.245 OA
BRANCH  13  15
ATOM     15  O5  UNL     1      45.164   7.809  15.781  0.00  0.00    -0.477 OA
ATOM     16  H6  UNL     1      45.745   7.022  15.865  0.00  0.00    +0.295 HD
ENDBRANCH  13  15
ENDBRANCH   2  13
TORSDOF 5
ENDMDL
MODEL 7
REMARK VINA RESULT:    -5.155     16.693     17.636
REMARK INTER + INTRA:          -6.116
REMARK INTER:                  -6.069
REMARK INTRA:                  -0.048
REMARK UNBOUND:                -0.057
REMARK  Name = data/mahkota_dewa_dn/results/docking/ligands/pdb/Gallic_acid.pdb
REMARK  5 active torsions:
REMARK  status: ('A' for Active; 'I' for Inactive)
REMARK    1  A    between atoms: C2_2  and  C7_10
REMARK    2  A    between atoms: C4_4  and  O3_9
REMARK    3  A    between atoms: C5_5  and  O2_8
REMARK    4  A    between atoms: C6_6  and  O1_7
REMARK    5  A    between atoms: C7_10  and  O5_12
REMARK                            x       y       z     vdW  Elec       q    Type
REMARK                         _______ _______ _______ _____ _____    ______ ____
ROOT
ATOM      1  C1  UNL     1      42.127   9.027  13.876  0.00  0.00    +0.064 A 
ATOM      2  C2  UNL     1      43.078   7.993  13.886  0.00  0.00    +0.066 A 
ATOM      3  C3  UNL     1      43.726   7.616  12.700  0.00  0.00    +0.064 A 
ATOM      4  C4  UNL     1      43.413   8.278  11.518  0.00  0.00    +0.163 A 
ATOM      5  C5  UNL     1      42.468   9.304  11.506  0.00  0.00    +0.201 A 
ATOM      6  C6  UNL     1      41.825   9.679  12.683  0.00  0.00    +0.163 A 
ENDROOT
BRANCH   6   7
ATOM      7  O1  UNL     1      40.902  10.686  12.656  0.00  0.00    -0.503 OA
ATOM      8  H3  UNL     1      40.089  10.370  12.233  0.00  0.00    +0.292 HD
ENDBRANCH   6   7
BRANCH   5   9
ATOM      9  O2  UNL     1      42.186   9.933  10.325  0.00  0.00    -0.501 OA
ATOM     10  H4  UNL     1      42.311   9.249   9.639  0.00  0.00    +0.292 HD
ENDBRANCH   5   9
BRANCH   4  11
ATOM     11  O3  UNL     1      44.013   7.953  10.332  0.00  0.00    -0.503 OA
ATOM     12  H5  UNL     1      43.658   8.532   9.635  0.00  0.00    +0.292 HD
ENDBRANCH   4  11
BRANCH   2  13
ATOM     13  C7  UNL     1      43.366   7.328  15.178  0.00  0.00    +0.337 C 
ATOM     14  O4  UNL     1      42.585   6.648  15.818  0.00  0.00    -0.245 OA
BRANCH  13  15
ATOM     15  O5  UNL     1      44.621   7.547  15.610  0.00  0.00    -0.477 OA
ATOM     16  H6  UNL     1      45.029   8.069  14.885  0.00  0.00    +0.295 HD
ENDBRANCH  13  15
ENDBRANCH   2  13
TORSDOF 5
ENDMDL
MODEL 8
REMARK VINA RESULT:    -5.071     17.899     19.691
REMARK INTER + INTRA:          -6.017
REMARK INTER:                  -5.965
REMARK INTRA:                  -0.052
REMARK UNBOUND:                -0.057
REMARK  Name = data/mahkota_dewa_dn/results/docking/ligands/pdb/Gallic_acid.pdb
REMARK  5 active torsions:
REMARK  status: ('A' for Active; 'I' for Inactive)
REMARK    1  A    between atoms: C2_2  and  C7_10
REMARK    2  A    between atoms: C4_4  and  O3_9
REMARK    3  A    between atoms: C5_5  and  O2_8
REMARK    4  A    between atoms: C6_6  and  O1_7
REMARK    5  A    between atoms: C7_10  and  O5_12
REMARK                            x       y       z     vdW  Elec       q    Type
REMARK                         _______ _______ _______ _____ _____    ______ ____
ROOT
ATOM      1  C1  UNL     1      41.276   8.222  12.796  0.00  0.00    +0.064 A 
ATOM      2  C2  UNL     1      39.927   8.191  12.406  0.00  0.00    +0.066 A 
ATOM      3  C3  UNL     1      38.936   7.781  13.312  0.00  0.00    +0.064 A 
ATOM      4  C4  UNL     1      39.310   7.406  14.597  0.00  0.00    +0.163 A 
ATOM      5  C5  UNL     1      40.649   7.435  14.987  0.00  0.00    +0.201 A 
ATOM      6  C6  UNL     1      41.632   7.842  14.089  0.00  0.00    +0.163 A 
ENDROOT
BRANCH   6   7
ATOM      7  O1  UNL     1      42.939   7.866  14.484  0.00  0.00    -0.503 OA
ATOM      8  H3  UNL     1      42.996   8.188  15.397  0.00  0.00    +0.292 HD
ENDBRANCH   6   7
BRANCH   5   9
ATOM      9  O2  UNL     1      40.978   7.059  16.260  0.00  0.00    -0.501 OA
ATOM     10  H4  UNL     1      40.204   7.302  16.803  0.00  0.00    +0.292 HD
ENDBRANCH   5   9
BRANCH   4  11
ATOM     11  O3  UNL     1      38.387   6.997  15.522  0.00  0.00    -0.503 OA
ATOM     12  H5  UNL     1      37.981   6.169  15.212  0.00  0.00    +0.292 HD
ENDBRANCH   4  11
BRANCH   2  13
ATOM     13  C7  UNL     1      39.596   8.603  11.021  0.00  0.00    +0.337 C 
ATOM     14  O4  UNL     1      40.230   8.317  10.023  0.00  0.00    -0.245 OA
BRANCH  13  15
ATOM     15  O5  UNL     1      38.484   9.357  10.953  0.00  0.00    -0.477 OA
ATOM     16  H6  UNL     1      38.747  10.200  11.382  0.00  0.00    +0.295 HD
ENDBRANCH  13  15
ENDBRANCH   2  13
TORSDOF 5
ENDMDL
MODEL 9
REMARK VINA RESULT:    -5.028     11.634     13.023
REMARK INTER + INTRA:          -5.966
REMARK INTER:                  -5.919
REMARK INTRA:                  -0.047
REMARK UNBOUND:                -0.057
REMARK  Name = data/mahkota_dewa_dn/results/docking/ligands/pdb/Gallic_acid.pdb
REMARK  5 active torsions:
REMARK  status: ('A' for Active; 'I' for Inactive)
REMARK    1  A    between atoms: C2_2  and  C7_10
REMARK    2  A    between atoms: C4_4  and  O3_9
REMARK    3  A    between atoms: C5_5  and  O2_8
REMARK    4  A    between atoms: C6_6  and  O1_7
REMARK    5  A    between atoms: C7_10  and  O5_12
REMARK                            x       y       z     vdW  Elec       q    Type
REMARK                         _______ _______ _______ _____ _____    ______ ____
ROOT
ATOM      1  C1  UNL     1      54.305  13.342   8.924  0.00  0.00    +0.064 A 
ATOM      2  C2  UNL     1      53.290  14.309   9.021  0.00  0.00    +0.066 A 
ATOM      3  C3  UNL     1      51.991  13.937   9.399  0.00  0.00    +0.064 A 
ATOM      4  C4  UNL     1      51.724  12.600   9.673  0.00  0.00    +0.163 A 
ATOM      5  C5  UNL     1      52.730  11.639   9.577  0.00  0.00    +0.201 A 
ATOM      6  C6  UNL     1      54.019  12.007   9.203  0.00  0.00    +0.163 A 
ENDROOT
BRANCH   6   7
ATOM      7  O1  UNL     1      54.994  11.055   9.113  0.00  0.00    -0.503 OA
ATOM      8  H3  UNL     1      54.587  10.184   8.988  0.00  0.00    +0.292 HD
ENDBRANCH   6   7
BRANCH   5   9
ATOM      9  O2  UNL     1      52.429  10.334   9.855  0.00  0.00    -0.501 OA
ATOM     10  H4  UNL     1      53.046  10.079  10.569  0.00  0.00    +0.292 HD
ENDBRANCH   5   9
BRANCH   4  11
ATOM     11  O3  UNL     1      50.476  12.179  10.046  0.00  0.00    -0.503 OA
ATOM     12  H5  UNL     1      49.846  12.412   9.342  0.00  0.00    +0.292 HD
ENDBRANCH   4  11
BRANCH   2  13
ATOM     13  C7  UNL     1      53.641  15.716   8.714  0.00  0.00    +0.337 C 
ATOM     14  O4  UNL     1      53.950  16.149   7.620  0.00  0.00    -0.245 OA
BRANCH  13  15
ATOM     15  O5  UNL     1      53.589  16.514   9.796  0.00  0.00    -0.477 OA
ATOM     16  H6  UNL     1      52.687  16.366  10.151  0.00  0.00    +0.295 HD
ENDBRANCH  13  15
ENDBRANCH   2  13
TORSDOF 5
ENDMDL
