MODEL 1
REMARK VINA RESULT:    -6.234      0.000      0.000
REMARK INTER + INTRA:          -7.658
REMARK INTER:                  -7.510
REMARK INTRA:                  -0.149
REMARK UNBOUND:                -0.149
REMARK  Name = data/mahkota_dewa_dn/results/docking/ligands/pdb/Caffeic_acid.pdb
REMARK  5 active torsions:
REMARK  status: ('A' for Active; 'I' for Inactive)
REMARK    1  A    between atoms: C3_3  and  O4_13
REMARK    2  A    between atoms: C4_4  and  O3_12
REMARK    3  A    between atoms: C6_6  and  C7_7
REMARK    4  A    between atoms: C8_8  and  C9_9
REMARK    5  A    between atoms: C9_9  and  O2_11
REMARK                            x       y       z     vdW  Elec       q    Type
REMARK                         _______ _______ _______ _____ _____    ______ ____
ROOT
ATOM      1  C1  UNL     1      53.410  14.300   7.669  0.00  0.00    +0.012 A 
ATOM      2  C2  UNL     1      52.814  13.321   8.473  0.00  0.00    +0.050 A 
ATOM      3  C3  UNL     1      52.724  13.534   9.841  0.00  0.00    +0.158 A 
ATOM      4  C4  UNL     1      53.225  14.705  10.403  0.00  0.00    +0.159 A 
ATOM      5  C5  UNL     1      53.819  15.680   9.613  0.00  0.00    +0.057 A 
ATOM      6  C6  UNL     1      53.905  15.493   8.227  0.00  0.00    -0.021 A 
ENDROOT
BRANCH   6   7
ATOM      7  C7  UNL     1      54.545  16.473   7.338  0.00  0.00    +0.015 C 
ATOM      8  C8  UNL     1      54.229  16.628   6.042  0.00  0.00    +0.092 C 
BRANCH   8   9
ATOM      9  C9  UNL     1      54.881  17.602   5.157  0.00  0.00    +0.330 C 
ATOM     10  O1  UNL     1      55.650  18.466   5.536  0.00  0.00    -0.246 OA
BRANCH   9  11
ATOM     11  O2  UNL     1      54.560  17.466   3.863  0.00  0.00    -0.478 OA
ATOM     12  H6  UNL     1      53.974  16.682   3.852  0.00  0.00    +0.295 HD
ENDBRANCH   9  11
ENDBRANCH   8   9
ENDBRANCH   6   7
BRANCH   4  13
ATOM     13  O3  UNL     1      53.141  14.901  11.752  0.00  0.00    -0.503 OA
ATOM     14  H7  UNL     1      54.066  14.849  12.065  0.00  0.00    +0.292 HD
ENDBRANCH   4  13
BRANCH   3  15
ATOM     15  O4  UNL     1      52.154  12.618  10.680  0.00  0.00    -0.503 OA
ATOM     16  H8  UNL     1      51.505  13.080  11.238  0.00  0.00    +0.292 HD
ENDBRANCH   3  15
TORSDOF 5
ENDMDL
MODEL 2
REMARK VINA RESULT:    -5.805      4.967      7.582
REMARK INTER + INTRA:          -7.142
REMARK INTER:                  -6.999
REMARK INTRA:                  -0.143
REMARK UNBOUND:                -0.149
REMARK  Name = data/mahkota_dewa_dn/results/docking/ligands/pdb/Caffeic_acid.pdb
REMARK  5 active torsions:
REMARK  status: ('A' for Active; 'I' for Inactive)
REMARK    1  A    between atoms: C3_3  and  O4_13
REMARK    2  A    between atoms: C4_4  and  O3_12
REMARK    3  A    between atoms: C6_6  and  C7_7
REMARK    4  A    between atoms: C8_8  and  C9_9
REMARK    5  A    between atoms: C9_9  and  O2_11
REMARK                            x       y       z     vdW  Elec       q    Type
REMARK                         _______ _______ _______ _____ _____    ______ ____
ROOT
ATOM      1  C1  UNL     1      57.188  18.199   8.437  0.00  0.00    +0.012 A 
ATOM      2  C2  UNL     1      56.493  17.786   7.295  0.00  0.00    +0.050 A 
ATOM      3  C3  UNL     1      56.496  18.601   6.171  0.00  0.00    +0.158 A 
ATOM      4  C4  UNL     1      57.179  19.814   6.187  0.00  0.00    +0.159 A 
ATOM      5  C5  UNL     1      57.870  20.231   7.316  0.00  0.00    +0.057 A 
ATOM      6  C6  UNL     1      57.893  19.416   8.456  0.00  0.00    -0.021 A 
ENDROOT
BRANCH   6   7
ATOM      7  C7  UNL     1      58.582  19.811   9.693  0.00  0.00    +0.015 C 
ATOM      8  C8  UNL     1      57.986  19.877  10.894  0.00  0.00    +0.092 C 
BRANCH   8   9
ATOM      9  C9  UNL     1      58.678  20.285  12.124  0.00  0.00    +0.330 C 
ATOM     10  O1  UNL     1      58.393  19.882  13.238  0.00  0.00    -0.246 OA
BRANCH   9  11
ATOM     11  O2  UNL     1      59.677  21.157  11.927  0.00  0.00    -0.478 OA
ATOM     12  H6  UNL     1      60.480  20.640  12.144  0.00  0.00    +0.295 HD
ENDBRANCH   9  11
ENDBRANCH   8   9
ENDBRANCH   6   7
BRANCH   4  13
ATOM     13  O3  UNL     1      57.168  20.614   5.080  0.00  0.00    -0.503 OA
ATOM     14  H7  UNL     1      56.222  20.699   4.848  0.00  0.00    +0.292 HD
ENDBRANCH   4  13
BRANCH   3  15
ATOM     15  O4  UNL     1      55.837  18.255   5.024  0.00  0.00    -0.503 OA
ATOM     16  H8  UNL     1      54.985  17.858   5.272  0.00  0.00    +0.292 HD
ENDBRANCH   3  15
TORSDOF 5
ENDMDL
MODEL 3
REMARK VINA RESULT:    -5.805      4.694      6.795
REMARK INTER + INTRA:          -7.141
REMARK INTER:                  -6.995
REMARK INTRA:                  -0.146
REMARK UNBOUND:                -0.149
REMARK  Name = data/mahkota_dewa_dn/results/docking/ligands/pdb/Caffeic_acid.pdb
REMARK  5 active torsions:
REMARK  status: ('A' for Active; 'I' for Inactive)
REMARK    1  A    between atoms: C3_3  and  O4_13
REMARK    2  A    between atoms: C4_4  and  O3_12
REMARK    3  A    between atoms: C6_6  and  C7_7
REMARK    4  A    between atoms: C8_8  and  C9_9
REMARK    5  A    between atoms: C9_9  and  O2_11
REMARK                            x       y       z     vdW  Elec       q    Type
REMARK                         _______ _______ _______ _____ _____    ______ ____
ROOT
ATOM      1  C1  UNL     1      54.625  11.065   8.664  0.00  0.00    +0.012 A 
ATOM      2  C2  UNL     1      54.219  12.244   9.300  0.00  0.00    +0.050 A 
ATOM      3  C3  UNL     1      53.114  12.212  10.140  0.00  0.00    +0.158 A 
ATOM      4  C4  UNL     1      52.420  11.022  10.339  0.00  0.00    +0.159 A 
ATOM      5  C5  UNL     1      52.815   9.848   9.711  0.00  0.00    +0.057 A 
ATOM      6  C6  UNL     1      53.938   9.855   8.872  0.00  0.00    -0.021 A 
ENDROOT
BRANCH   6   7
ATOM      7  C7  UNL     1      54.394   8.654   8.157  0.00  0.00    +0.015 C 
ATOM      8  C8  UNL     1      54.891   8.670   6.910  0.00  0.00    +0.092 C 
BRANCH   8   9
ATOM      9  C9  UNL     1      55.333   7.464   6.196  0.00  0.00    +0.330 C 
ATOM     10  O1  UNL     1      54.742   6.400   6.215  0.00  0.00    -0.246 OA
BRANCH   9  11
ATOM     11  O2  UNL     1      56.469   7.625   5.502  0.00  0.00    -0.478 OA
ATOM     12  H6  UNL     1      56.165   7.974   4.640  0.00  0.00    +0.295 HD
ENDBRANCH   9  11
ENDBRANCH   8   9
ENDBRANCH   6   7
BRANCH   4  13
ATOM     13  O3  UNL     1      51.327  11.002  11.159  0.00  0.00    -0.503 OA
ATOM     14  H7  UNL     1      50.768  10.281  10.805  0.00  0.00    +0.292 HD
ENDBRANCH   4  13
BRANCH   3  15
ATOM     15  O4  UNL     1      52.666  13.328  10.790  0.00  0.00    -0.503 OA
ATOM     16  H8  UNL     1      52.526  13.098  11.725  0.00  0.00    +0.292 HD
ENDBRANCH   3  15
TORSDOF 5
ENDMDL
MODEL 4
REMARK VINA RESULT:    -5.665      2.303      6.538
REMARK INTER + INTRA:          -6.973
REMARK INTER:                  -6.842
REMARK INTRA:                  -0.131
REMARK UNBOUND:                -0.149
REMARK  Name = data/mahkota_dewa_dn/results/docking/ligands/pdb/Caffeic_acid.pdb
REMARK  5 active torsions:
REMARK  status: ('A' for Active; 'I' for Inactive)
REMARK    1  A    between atoms: C3_3  and  O4_13
REMARK    2  A    between atoms: C4_4  and  O3_12
REMARK    3  A    between atoms: C6_6  and  C7_7
REMARK    4  A    between atoms: C8_8  and  C9_9
REMARK    5  A    between atoms: C9_9  and  O2_11
REMARK                            x       y       z     vdW  Elec       q    Type
REMARK                         _______ _______ _______ _____ _____    ______ ____
ROOT
ATOM      1  C1  UNL     1      53.283  15.772  10.406  0.00  0.00    +0.012 A 
ATOM      2  C2  UNL     1      53.885  16.458   9.344  0.00  0.00    +0.050 A 
ATOM      3  C3  UNL     1      53.906  15.870   8.087  0.00  0.00    +0.158 A 
ATOM      4  C4  UNL     1      53.339  14.615   7.890  0.00  0.00    +0.159 A 
ATOM      5  C5  UNL     1      52.741  13.927   8.938  0.00  0.00    +0.057 A 
ATOM      6  C6  UNL     1      52.694  14.509  10.212  0.00  0.00    -0.021 A 
ENDROOT
BRANCH   6   7
ATOM      7  C7  UNL     1      52.100  13.824  11.370  0.00  0.00    +0.015 C 
ATOM      8  C8  UNL     1      51.560  12.596  11.316  0.00  0.00    +0.092 C 
BRANCH   8   9
ATOM      9  C9  UNL     1      50.958  11.923  12.475  0.00  0.00    +0.330 C 
ATOM     10  O1  UNL     1      49.905  11.312  12.442  0.00  0.00    -0.246 OA
BRANCH   9  11
ATOM     11  O2  UNL     1      51.672  12.032  13.604  0.00  0.00    -0.478 OA
ATOM     12  H6  UNL     1      52.391  12.651  13.363  0.00  0.00    +0.295 HD
ENDBRANCH   9  11
ENDBRANCH   8   9
ENDBRANCH   6   7
BRANCH   4  13
ATOM     13  O3  UNL     1      53.374  14.039   6.652  0.00  0.00    -0.503 OA
ATOM     14  H7  UNL     1      53.321  14.792   6.030  0.00  0.00    +0.292 HD
ENDBRANCH   4  13
BRANCH   3  15
ATOM     15  O4  UNL     1      54.478  16.488   7.009  0.00  0.00    -0.503 OA
ATOM     16  H8  UNL     1      55.442  16.388   7.080  0.00  0.00    +0.292 HD
ENDBRANCH   3  15
TORSDOF 5
ENDMDL
MODEL 5
REMARK VINA RESULT:    -5.612     13.107     14.849
REMARK INTER + INTRA:          -6.909
REMARK INTER:                  -6.779
REMARK INTRA:                  -0.130
REMARK UNBOUND:                -0.149
REMARK  Name = data/mahkota_dewa_dn/results/docking/ligands/pdb/Caffeic_acid.pdb
REMARK  5 active torsions:
REMARK  status: ('A' for Active; 'I' for Inactive)
REMARK    1  A    between atoms: C3_3  and  O4_13
REMARK    2  A    between atoms: C4_4  and  O3_12
REMARK    3  A    between atoms: C6_6  and  C7_7
REMARK    4  A    between atoms: C8_8  and  C9_9
REMARK    5  A    between atoms: C9_9  and  O2_11
REMARK                            x       y       z     vdW  Elec       q    Type
REMARK                         _______ _______ _______ _____ _____    ______ ____
ROOT
ATOM      1  C1  UNL     1      42.444   9.286  10.740  0.00  0.00    +0.012 A 
ATOM      2  C2  UNL     1      41.248   9.489  10.042  0.00  0.00    +0.050 A 
ATOM      3  C3  UNL     1      40.042   9.256  10.689  0.00  0.00    +0.158 A 
ATOM      4  C4  UNL     1      40.028   8.822  12.011  0.00  0.00    +0.159 A 
ATOM      5  C5  UNL     1      41.210   8.618  12.710  0.00  0.00    +0.057 A 
ATOM      6  C6  UNL     1      42.439   8.863  12.082  0.00  0.00    -0.021 A 
ENDROOT
BRANCH   6   7
ATOM      7  C7  UNL     1      43.726   8.642  12.756  0.00  0.00    +0.015 C 
ATOM      8  C8  UNL     1      43.845   8.294  14.047  0.00  0.00    +0.092 C 
BRANCH   8   9
ATOM      9  C9  UNL     1      45.136   8.085  14.717  0.00  0.00    +0.330 C 
ATOM     10  O1  UNL     1      46.196   7.940  14.135  0.00  0.00    -0.246 OA
BRANCH   9  11
ATOM     11  O2  UNL     1      45.061   8.065  16.056  0.00  0.00    -0.478 OA
ATOM     12  H6  UNL     1      45.948   8.369  16.340  0.00  0.00    +0.295 HD
ENDBRANCH   9  11
ENDBRANCH   8   9
ENDBRANCH   6   7
BRANCH   4  13
ATOM     13  O3  UNL     1      38.837   8.585  12.636  0.00  0.00    -0.503 OA
ATOM     14  H7  UNL     1      39.040   8.662  13.589  0.00  0.00    +0.292 HD
ENDBRANCH   4  13
BRANCH   3  15
ATOM     15  O4  UNL     1      38.839   9.434  10.063  0.00  0.00    -0.503 OA
ATOM     16  H8  UNL     1      38.245   9.900  10.676  0.00  0.00    +0.292 HD
ENDBRANCH   3  15
TORSDOF 5
ENDMDL
MODEL 6
REMARK VINA RESULT:    -5.612     13.902     16.566
REMARK INTER + INTRA:          -6.908
REMARK INTER:                  -6.780
REMARK INTRA:                  -0.129
REMARK UNBOUND:                -0.149
REMARK  Name = data/mahkota_dewa_dn/results/docking/ligands/pdb/Caffeic_acid.pdb
REMARK  5 active torsions:
REMARK  status: ('A' for Active; 'I' for Inactive)
REMARK    1  A    between atoms: C3_3  and  O4_13
REMARK    2  A    between atoms: C4_4  and  O3_12
REMARK    3  A    between atoms: C6_6  and  C7_7
REMARK    4  A    between atoms: C8_8  and  C9_9
REMARK    5  A    between atoms: C9_9  and  O2_11
REMARK                            x       y       z     vdW  Elec       q    Type
REMARK                         _______ _______ _______ _____ _____    ______ ____
ROOT
ATOM      1  C1  UNL     1      42.184   8.479  11.462  0.00  0.00    +0.012 A 
ATOM      2  C2  UNL     1      42.771   8.152  10.234  0.00  0.00    +0.050 A 
ATOM      3  C3  UNL     1      42.626   6.863   9.739  0.00  0.00    +0.158 A 
ATOM      4  C4  UNL     1      41.910   5.912  10.459  0.00  0.00    +0.159 A 
ATOM      5  C5  UNL     1      41.325   6.228  11.679  0.00  0.00    +0.057 A 
ATOM      6  C6  UNL     1      41.446   7.528  12.189  0.00  0.00    -0.021 A 
ENDROOT
BRANCH   6   7
ATOM      7  C7  UNL     1      40.875   7.921  13.486  0.00  0.00    +0.015 C 
ATOM      8  C8  UNL     1      40.308   7.060  14.346  0.00  0.00    +0.092 C 
BRANCH   8   9
ATOM      9  C9  UNL     1      39.729   7.462  15.635  0.00  0.00    +0.330 C 
ATOM     10  O1  UNL     1      40.338   8.057  16.505  0.00  0.00    -0.246 OA
BRANCH   9  11
ATOM     11  O2  UNL     1      38.442   7.117  15.788  0.00  0.00    -0.478 OA
ATOM     12  H6  UNL     1      38.157   7.635  16.569  0.00  0.00    +0.295 HD
ENDBRANCH   9  11
ENDBRANCH   8   9
ENDBRANCH   6   7
BRANCH   4  13
ATOM     13  O3  UNL     1      41.781   4.643   9.970  0.00  0.00    -0.503 OA
ATOM     14  H7  UNL     1      41.971   4.065  10.735  0.00  0.00    +0.292 HD
ENDBRANCH   4  13
BRANCH   3  15
ATOM     15  O4  UNL     1      43.175   6.480   8.546  0.00  0.00    -0.503 OA
ATOM     16  H8  UNL     1      43.961   7.029   8.384  0.00  0.00    +0.292 HD
ENDBRANCH   3  15
TORSDOF 5
ENDMDL
MODEL 7
REMARK VINA RESULT:    -5.541     12.860     14.494
REMARK INTER + INTRA:          -6.823
REMARK INTER:                  -6.680
REMARK INTRA:                  -0.143
REMARK UNBOUND:                -0.149
REMARK  Name = data/mahkota_dewa_dn/results/docking/ligands/pdb/Caffeic_acid.pdb
REMARK  5 active torsions:
REMARK  status: ('A' for Active; 'I' for Inactive)
REMARK    1  A    between atoms: C3_3  and  O4_13
REMARK    2  A    between atoms: C4_4  and  O3_12
REMARK    3  A    between atoms: C6_6  and  C7_7
REMARK    4  A    between atoms: C8_8  and  C9_9
REMARK    5  A    between atoms: C9_9  and  O2_11
REMARK                            x       y       z     vdW  Elec       q    Type
REMARK                         _______ _______ _______ _____ _____    ______ ____
ROOT
ATOM      1  C1  UNL     1      41.456   8.437   9.273  0.00  0.00    +0.012 A 
ATOM      2  C2  UNL     1      40.151   8.922   9.412  0.00  0.00    +0.050 A 
ATOM      3  C3  UNL     1      39.623   9.084  10.686  0.00  0.00    +0.158 A 
ATOM      4  C4  UNL     1      40.383   8.761  11.806  0.00  0.00    +0.159 A 
ATOM      5  C5  UNL     1      41.679   8.278  11.676  0.00  0.00    +0.057 A 
ATOM      6  C6  UNL     1      42.238   8.123  10.400  0.00  0.00    -0.021 A 
ENDROOT
BRANCH   6   7
ATOM      7  C7  UNL     1      43.592   7.591  10.193  0.00  0.00    +0.015 C 
ATOM      8  C8  UNL     1      43.901   6.673   9.263  0.00  0.00    +0.092 C 
BRANCH   8   9
ATOM      9  C9  UNL     1      45.256   6.137   9.069  0.00  0.00    +0.330 C 
ATOM     10  O1  UNL     1      45.872   5.509   9.910  0.00  0.00    -0.246 OA
BRANCH   9  11
ATOM     11  O2  UNL     1      45.780   6.398   7.863  0.00  0.00    -0.478 OA
ATOM     12  H6  UNL     1      45.164   5.957   7.243  0.00  0.00    +0.295 HD
ENDBRANCH   9  11
ENDBRANCH   8   9
ENDBRANCH   6   7
BRANCH   4  13
ATOM     13  O3  UNL     1      39.852   8.913  13.055  0.00  0.00    -0.503 OA
ATOM     14  H7  UNL     1      40.097   9.823  13.317  0.00  0.00    +0.292 HD
ENDBRANCH   4  13
BRANCH   3  15
ATOM     15  O4  UNL     1      38.356   9.554  10.890  0.00  0.00    -0.503 OA
ATOM     16  H8  UNL     1      38.183  10.253  10.237  0.00  0.00    +0.292 HD
ENDBRANCH   3  15
TORSDOF 5
ENDMDL
MODEL 8
REMARK VINA RESULT:    -5.527     13.208     15.555
REMARK INTER + INTRA:          -6.806
REMARK INTER:                  -6.653
REMARK INTRA:                  -0.154
REMARK UNBOUND:                -0.149
REMARK  Name = data/mahkota_dewa_dn/results/docking/ligands/pdb/Caffeic_acid.pdb
REMARK  5 active torsions:
REMARK  status: ('A' for Active; 'I' for Inactive)
REMARK    1  A    between atoms: C3_3  and  O4_13
REMARK    2  A    between atoms: C4_4  and  O3_12
REMARK    3  A    between atoms: C6_6  and  C7_7
REMARK    4  A    between atoms: C8_8  and  C9_9
REMARK    5  A    between atoms: C9_9  and  O2_11
REMARK                            x       y       z     vdW  Elec       q    Type
REMARK                         _______ _______ _______ _____ _____    ______ ____
ROOT
ATOM      1  C1  UNL     1      40.581   6.470  12.400  0.00  0.00    +0.012 A 
ATOM      2  C2  UNL     1      39.486   6.353  13.264  0.00  0.00    +0.050 A 
ATOM      3  C3  UNL     1      39.473   7.091  14.440  0.00  0.00    +0.158 A 
ATOM      4  C4  UNL     1      40.538   7.929  14.753  0.00  0.00    +0.159 A 
ATOM      5  C5  UNL     1      41.628   8.051  13.901  0.00  0.00    +0.057 A 
ATOM      6  C6  UNL     1      41.654   7.328  12.701  0.00  0.00    -0.021 A 
ENDROOT
BRANCH   6   7
ATOM      7  C7  UNL     1      42.789   7.389  11.769  0.00  0.00    +0.015 C 
ATOM      8  C8  UNL     1      42.824   6.751  10.588  0.00  0.00    +0.092 C 
BRANCH   8   9
ATOM      9  C9  UNL     1      43.967   6.808   9.667  0.00  0.00    +0.330 C 
ATOM     10  O1  UNL     1      45.040   7.319   9.935  0.00  0.00    -0.246 OA
BRANCH   9  11
ATOM     11  O2  UNL     1      43.737   6.241   8.474  0.00  0.00    -0.478 OA
ATOM     12  H6  UNL     1      42.832   5.878   8.562  0.00  0.00    +0.295 HD
ENDBRANCH   9  11
ENDBRANCH   8   9
ENDBRANCH   6   7
BRANCH   4  13
ATOM     13  O3  UNL     1      40.522   8.644  15.917  0.00  0.00    -0.503 OA
ATOM     14  H7  UNL     1      40.157   8.024  16.580  0.00  0.00    +0.292 HD
ENDBRANCH   4  13
BRANCH   3  15
ATOM     15  O4  UNL     1      38.434   7.021  15.326  0.00  0.00    -0.503 OA
ATOM     16  H8  UNL     1      37.631   6.780  14.834  0.00  0.00    +0.292 HD
ENDBRANCH   3  15
TORSDOF 5
ENDMDL
MODEL 9
REMARK VINA RESULT:    -5.487     13.512     14.646
REMARK INTER + INTRA:          -6.758
REMARK INTER:                  -6.630
REMARK INTRA:                  -0.128
REMARK UNBOUND:                -0.149
REMARK  Name = data/mahkota_dewa_dn/results/docking/ligands/pdb/Caffeic_acid.pdb
REMARK  5 active torsions:
REMARK  status: ('A' for Active; 'I' for Inactive)
REMARK    1  A    between atoms: C3_3  and  O4_13
REMARK    2  A    between atoms: C4_4  and  O3_12
REMARK    3  A    between atoms: C6_6  and  C7_7
REMARK    4  A    between atoms: C8_8  and  C9_9
REMARK    5  A    between atoms: C9_9  and  O2_11
REMARK                            x       y       z     vdW  Elec       q    Type
REMARK                         _______ _______ _______ _____ _____    ______ ____
ROOT
ATOM      1  C1  UNL     1      42.652   9.284  11.169  0.00  0.00    +0.012 A 
ATOM      2  C2  UNL     1      41.859   9.141  10.025  0.00  0.00    +0.050 A 
ATOM      3  C3  UNL     1      41.572   7.865   9.558  0.00  0.00    +0.158 A 
ATOM      4  C4  UNL     1      42.074   6.748  10.218  0.00  0.00    +0.159 A 
ATOM      5  C5  UNL     1      42.863   6.881  11.353  0.00  0.00    +0.057 A 
ATOM      6  C6  UNL     1      43.151   8.159  11.852  0.00  0.00    -0.021 A 
ENDROOT
BRANCH   6   7
ATOM      7  C7  UNL     1      44.001   8.371  13.032  0.00  0.00    +0.015 C 
ATOM      8  C8  UNL     1      43.527   8.528  14.278  0.00  0.00    +0.092 C 
BRANCH   8   9
ATOM      9  C9  UNL     1      44.383   8.751  15.451  0.00  0.00    +0.330 C 
ATOM     10  O1  UNL     1      44.228   9.657  16.250  0.00  0.00    -0.246 OA
BRANCH   9  11
ATOM     11  O2  UNL     1      45.376   7.860  15.582  0.00  0.00    -0.478 OA
ATOM     12  H6  UNL     1      45.188   7.431  16.442  0.00  0.00    +0.295 HD
ENDBRANCH   9  11
ENDBRANCH   8   9
ENDBRANCH   6   7
BRANCH   4  13
ATOM     13  O3  UNL     1      41.796   5.497   9.745  0.00  0.00    -0.503 OA
ATOM     14  H7  UNL     1      42.471   5.340   9.055  0.00  0.00    +0.292 HD
ENDBRANCH   4  13
BRANCH   3  15
ATOM     15  O4  UNL     1      40.803   7.657   8.446  0.00  0.00    -0.503 OA
ATOM     16  H8  UNL     1      40.841   6.712   8.224  0.00  0.00    +0.292 HD
ENDBRANCH   3  15
TORSDOF 5
ENDMDL
