MODEL 1
REMARK VINA RESULT:    -8.729      0.000      0.000
REMARK INTER + INTRA:         -10.036
REMARK INTER:                  -9.749
REMARK INTRA:                  -0.287
REMARK UNBOUND:                -0.287
REMARK  Name = data/mahkota_dewa_dn/results/docking/ligands/pdb/Phalerin.pdb
REMARK  3 active torsions:
REMARK  status: ('A' for Active; 'I' for Inactive)
REMARK    1  A    between atoms: C1_1  and  O1_2
REMARK    2  A    between atoms: O1_2  and  C2_3
REMARK    3  A    between atoms: C9_13  and  C12_17
REMARK                            x       y       z     vdW  Elec       q    Type
REMARK                         _______ _______ _______ _____ _____    ______ ____
ROOT
ATOM      1  C2  UNL     1      52.235  12.156  11.014  0.00  0.00    +0.180 A 
ATOM      2  C3  UNL     1      52.906  11.348  10.084  0.00  0.00    +0.109 A 
ATOM      3  C4  UNL     1      52.544   9.994   9.945  0.00  0.00    +0.146 A 
ATOM      4  C5  UNL     1      51.525   9.434  10.723  0.00  0.00    +0.096 A 
ATOM      5  C6  UNL     1      50.883  10.256  11.621  0.00  0.00    +0.173 A 
ATOM      6  C7  UNL     1      51.220  11.583  11.763  0.00  0.00    +0.208 A 
ATOM      7  O2  UNL     1      50.446  12.208  12.693  0.00  0.00    -0.449 OA
ATOM      8  C8  UNL     1      49.578  11.134  13.105  0.00  0.00    +0.467 C 
ATOM      9  O3  UNL     1      49.865   9.885  12.444  0.00  0.00    -0.452 OA
ATOM     10  O4  UNL     1      53.148   9.143   9.052  0.00  0.00    -0.454 OA
ATOM     11  C9  UNL     1      54.121   9.648   8.210  0.00  0.00    +0.139 A 
ATOM     12  C10 UNL     1      54.572  10.908   8.256  0.00  0.00    +0.098 A 
ATOM     13  C11 UNL     1      54.009  11.851   9.238  0.00  0.00    +0.197 A 
ATOM     14  O5  UNL     1      54.483  12.975   9.325  0.00  0.00    -0.287 OA
ENDROOT
BRANCH  11  15
ATOM     15  C12 UNL     1      54.669   8.663   7.258  0.00  0.00    +0.017 A 
ATOM     16  C13 UNL     1      54.286   7.316   7.342  0.00  0.00    +0.011 A 
ATOM     17  C14 UNL     1      54.788   6.371   6.443  0.00  0.00    +0.001 A 
ATOM     18  C15 UNL     1      55.674   6.763   5.443  0.00  0.00    +0.000 A 
ATOM     19  C16 UNL     1      56.058   8.098   5.339  0.00  0.00    +0.001 A 
ATOM     20  C17 UNL     1      55.556   9.043   6.238  0.00  0.00    +0.011 A 
ENDBRANCH  11  15
BRANCH   1  22
ATOM     21  C1  UNL     1      51.544  14.252  10.372  0.00  0.00    +0.277 C 
ATOM     22  O1  UNL     1      52.485  13.494  11.131  0.00  0.00    -0.491 OA
ENDBRANCH   1  22
TORSDOF 2
ENDMDL
MODEL 2
REMARK VINA RESULT:    -8.635      1.277      3.123
REMARK INTER + INTRA:          -9.932
REMARK INTER:                  -9.650
REMARK INTRA:                  -0.283
REMARK UNBOUND:                -0.287
REMARK  Name = data/mahkota_dewa_dn/results/docking/ligands/pdb/Phalerin.pdb
REMARK  3 active torsions:
REMARK  status: ('A' for Active; 'I' for Inactive)
REMARK    1  A    between atoms: C1_1  and  O1_2
REMARK    2  A    between atoms: O1_2  and  C2_3
REMARK    3  A    between atoms: C9_13  and  C12_17
REMARK                            x       y       z     vdW  Elec       q    Type
REMARK                         _______ _______ _______ _____ _____    ______ ____
ROOT
ATOM      1  C2  UNL     1      51.953  12.282  10.868  0.00  0.00    +0.180 A 
ATOM      2  C3  UNL     1      52.534  11.329  10.018  0.00  0.00    +0.109 A 
ATOM      3  C4  UNL     1      53.507  11.728   9.082  0.00  0.00    +0.146 A 
ATOM      4  C5  UNL     1      53.905  13.065   8.978  0.00  0.00    +0.096 A 
ATOM      5  C6  UNL     1      53.320  13.974   9.830  0.00  0.00    +0.173 A 
ATOM      6  C7  UNL     1      52.374  13.597  10.756  0.00  0.00    +0.208 A 
ATOM      7  O2  UNL     1      51.944  14.653  11.502  0.00  0.00    -0.449 OA
ATOM      8  C8  UNL     1      52.735  15.725  10.955  0.00  0.00    +0.467 C 
ATOM      9  O3  UNL     1      53.596  15.305   9.876  0.00  0.00    -0.452 OA
ATOM     10  O4  UNL     1      54.128  10.854   8.224  0.00  0.00    -0.454 OA
ATOM     11  C9  UNL     1      53.824   9.507   8.316  0.00  0.00    +0.139 A 
ATOM     12  C10 UNL     1      52.903   9.002   9.146  0.00  0.00    +0.098 A 
ATOM     13  C11 UNL     1      52.157   9.900  10.045  0.00  0.00    +0.197 A 
ATOM     14  O5  UNL     1      51.263   9.439  10.741  0.00  0.00    -0.287 OA
ENDROOT
BRANCH  11  15
ATOM     15  C12 UNL     1      54.581   8.650   7.384  0.00  0.00    +0.017 A 
ATOM     16  C13 UNL     1      54.401   7.259   7.405  0.00  0.00    +0.011 A 
ATOM     17  C14 UNL     1      55.103   6.433   6.522  0.00  0.00    +0.001 A 
ATOM     18  C15 UNL     1      55.988   6.989   5.602  0.00  0.00    +0.000 A 
ATOM     19  C16 UNL     1      56.171   8.369   5.561  0.00  0.00    +0.001 A 
ATOM     20  C17 UNL     1      55.470   9.195   6.444  0.00  0.00    +0.011 A 
ENDBRANCH  11  15
BRANCH   1  22
ATOM     21  C1  UNL     1      51.710  11.931  13.126  0.00  0.00    +0.277 C 
ATOM     22  O1  UNL     1      51.069  11.939  11.851  0.00  0.00    -0.491 OA
ENDBRANCH   1  22
TORSDOF 2
ENDMDL
MODEL 3
REMARK VINA RESULT:    -8.576      3.638      6.108
REMARK INTER + INTRA:          -9.865
REMARK INTER:                  -9.739
REMARK INTRA:                  -0.127
REMARK UNBOUND:                -0.287
REMARK  Name = data/mahkota_dewa_dn/results/docking/ligands/pdb/Phalerin.pdb
REMARK  3 active torsions:
REMARK  status: ('A' for Active; 'I' for Inactive)
REMARK    1  A    between atoms: C1_1  and  O1_2
REMARK    2  A    between atoms: O1_2  and  C2_3
REMARK    3  A    between atoms: C9_13  and  C12_17
REMARK                            x       y       z     vdW  Elec       q    Type
REMARK                         _______ _______ _______ _____ _____    ______ ____
ROOT
ATOM      1  C2  UNL     1      52.100  12.728  10.779  0.00  0.00    +0.180 A 
ATOM      2  C3  UNL     1      52.769  13.724  10.052  0.00  0.00    +0.109 A 
ATOM      3  C4  UNL     1      53.580  13.365   8.958  0.00  0.00    +0.146 A 
ATOM      4  C5  UNL     1      53.736  12.027   8.582  0.00  0.00    +0.096 A 
ATOM      5  C6  UNL     1      53.061  11.075   9.312  0.00  0.00    +0.173 A 
ATOM      6  C7  UNL     1      52.259  11.411  10.378  0.00  0.00    +0.208 A 
ATOM      7  O2  UNL     1      51.677  10.316  10.942  0.00  0.00    -0.449 OA
ATOM      8  C8  UNL     1      52.189   9.262  10.103  0.00  0.00    +0.467 C 
ATOM      9  O3  UNL     1      53.087   9.736   9.078  0.00  0.00    -0.452 OA
ATOM     10  O4  UNL     1      54.259  14.282   8.194  0.00  0.00    -0.454 OA
ATOM     11  C9  UNL     1      54.099  15.627   8.475  0.00  0.00    +0.139 A 
ATOM     12  C10 UNL     1      53.377  16.098   9.499  0.00  0.00    +0.098 A 
ATOM     13  C11 UNL     1      52.678  15.159  10.395  0.00  0.00    +0.197 A 
ATOM     14  O5  UNL     1      52.087  15.596  11.372  0.00  0.00    -0.287 OA
ENDROOT
BRANCH  11  15
ATOM     15  C12 UNL     1      54.832  16.528   7.564  0.00  0.00    +0.017 A 
ATOM     16  C13 UNL     1      54.304  16.831   6.301  0.00  0.00    +0.011 A 
ATOM     17  C14 UNL     1      54.980  17.690   5.430  0.00  0.00    +0.001 A 
ATOM     18  C15 UNL     1      56.191  18.261   5.814  0.00  0.00    +0.000 A 
ATOM     19  C16 UNL     1      56.725  17.977   7.068  0.00  0.00    +0.001 A 
ATOM     20  C17 UNL     1      56.049  17.118   7.940  0.00  0.00    +0.011 A 
ENDBRANCH  11  15
BRANCH   1  22
ATOM     21  C1  UNL     1      51.727  12.530  13.038  0.00  0.00    +0.277 C 
ATOM     22  O1  UNL     1      51.234  13.023  11.794  0.00  0.00    -0.491 OA
ENDBRANCH   1  22
TORSDOF 2
ENDMDL
MODEL 4
REMARK VINA RESULT:    -8.403      7.408      9.083
REMARK INTER + INTRA:          -9.673
REMARK INTER:                  -9.446
REMARK INTRA:                  -0.227
REMARK UNBOUND:                -0.287
REMARK  Name = data/mahkota_dewa_dn/results/docking/ligands/pdb/Phalerin.pdb
REMARK  3 active torsions:
REMARK  status: ('A' for Active; 'I' for Inactive)
REMARK    1  A    between atoms: C1_1  and  O1_2
REMARK    2  A    between atoms: O1_2  and  C2_3
REMARK    3  A    between atoms: C9_13  and  C12_17
REMARK                            x       y       z     vdW  Elec       q    Type
REMARK                         _______ _______ _______ _____ _____    ______ ____
ROOT
ATOM      1  C2  UNL     1      42.863   8.500  12.686  0.00  0.00    +0.180 A 
ATOM      2  C3  UNL     1      43.795   7.974  11.778  0.00  0.00    +0.109 A 
ATOM      3  C4  UNL     1      45.111   7.708  12.202  0.00  0.00    +0.146 A 
ATOM      4  C5  UNL     1      45.512   7.962  13.517  0.00  0.00    +0.096 A 
ATOM      5  C6  UNL     1      44.572   8.471  14.385  0.00  0.00    +0.173 A 
ATOM      6  C7  UNL     1      43.280   8.729  13.987  0.00  0.00    +0.208 A 
ATOM      7  O2  UNL     1      42.521   9.212  15.009  0.00  0.00    -0.449 OA
ATOM      8  C8  UNL     1      43.471   9.213  16.091  0.00  0.00    +0.467 C 
ATOM      9  O3  UNL     1      44.784   8.763  15.696  0.00  0.00    -0.452 OA
ATOM     10  O4  UNL     1      46.075   7.186  11.375  0.00  0.00    -0.454 OA
ATOM     11  C9  UNL     1      45.727   6.855  10.078  0.00  0.00    +0.139 A 
ATOM     12  C10 UNL     1      44.519   7.078   9.545  0.00  0.00    +0.098 A 
ATOM     13  C11 UNL     1      43.462   7.697  10.364  0.00  0.00    +0.197 A 
ATOM     14  O5  UNL     1      42.389   7.968   9.845  0.00  0.00    -0.287 OA
ENDROOT
BRANCH  11  15
ATOM     15  C12 UNL     1      46.823   6.257   9.291  0.00  0.00    +0.017 A 
ATOM     16  C13 UNL     1      47.712   5.356   9.897  0.00  0.00    +0.011 A 
ATOM     17  C14 UNL     1      48.750   4.773   9.164  0.00  0.00    +0.001 A 
ATOM     18  C15 UNL     1      48.908   5.078   7.814  0.00  0.00    +0.000 A 
ATOM     19  C16 UNL     1      48.028   5.963   7.195  0.00  0.00    +0.001 A 
ATOM     20  C17 UNL     1      46.990   6.546   7.928  0.00  0.00    +0.011 A 
ENDBRANCH  11  15
BRANCH   1  22
ATOM     21  C1  UNL     1      41.275  10.087  12.199  0.00  0.00    +0.277 C 
ATOM     22  O1  UNL     1      41.553   8.697  12.354  0.00  0.00    -0.491 OA
ENDBRANCH   1  22
TORSDOF 2
ENDMDL
MODEL 5
REMARK VINA RESULT:    -8.259      7.784     10.802
REMARK INTER + INTRA:          -9.511
REMARK INTER:                  -9.252
REMARK INTRA:                  -0.260
REMARK UNBOUND:                -0.287
REMARK  Name = data/mahkota_dewa_dn/results/docking/ligands/pdb/Phalerin.pdb
REMARK  3 active torsions:
REMARK  status: ('A' for Active; 'I' for Inactive)
REMARK    1  A    between atoms: C1_1  and  O1_2
REMARK    2  A    between atoms: O1_2  and  C2_3
REMARK    3  A    between atoms: C9_13  and  C12_17
REMARK                            x       y       z     vdW  Elec       q    Type
REMARK                         _______ _______ _______ _____ _____    ______ ____
ROOT
ATOM      1  C2  UNL     1      42.204   8.257  15.295  0.00  0.00    +0.180 A 
ATOM      2  C3  UNL     1      43.129   8.090  14.254  0.00  0.00    +0.109 A 
ATOM      3  C4  UNL     1      42.723   7.487  13.047  0.00  0.00    +0.146 A 
ATOM      4  C5  UNL     1      41.409   7.046  12.866  0.00  0.00    +0.096 A 
ATOM      5  C6  UNL     1      40.524   7.231  13.905  0.00  0.00    +0.173 A 
ATOM      6  C7  UNL     1      40.904   7.825  15.086  0.00  0.00    +0.208 A 
ATOM      7  O2  UNL     1      39.867   7.920  15.964  0.00  0.00    -0.449 OA
ATOM      8  C8  UNL     1      38.795   7.337  15.199  0.00  0.00    +0.467 C 
ATOM      9  O3  UNL     1      39.211   6.876  13.896  0.00  0.00    -0.452 OA
ATOM     10  O4  UNL     1      43.568   7.297  11.981  0.00  0.00    -0.454 OA
ATOM     11  C9  UNL     1      44.866   7.766  12.072  0.00  0.00    +0.139 A 
ATOM     12  C10 UNL     1      45.382   8.335  13.169  0.00  0.00    +0.098 A 
ATOM     13  C11 UNL     1      44.543   8.506  14.368  0.00  0.00    +0.197 A 
ATOM     14  O5  UNL     1      45.047   8.954  15.388  0.00  0.00    -0.287 OA
ENDROOT
BRANCH  11  15
ATOM     15  C12 UNL     1      45.673   7.555  10.855  0.00  0.00    +0.017 A 
ATOM     16  C13 UNL     1      46.946   8.134  10.747  0.00  0.00    +0.011 A 
ATOM     17  C14 UNL     1      47.728   7.936   9.605  0.00  0.00    +0.001 A 
ATOM     18  C15 UNL     1      47.249   7.151   8.560  0.00  0.00    +0.000 A 
ATOM     19  C16 UNL     1      45.991   6.561   8.655  0.00  0.00    +0.001 A 
ATOM     20  C17 UNL     1      45.209   6.759   9.796  0.00  0.00    +0.011 A 
ENDBRANCH  11  15
BRANCH   1  22
ATOM     21  C1  UNL     1      41.944  10.216  16.467  0.00  0.00    +0.277 C 
ATOM     22  O1  UNL     1      42.519   8.911  16.452  0.00  0.00    -0.491 OA
ENDBRANCH   1  22
TORSDOF 2
ENDMDL
MODEL 6
REMARK VINA RESULT:    -8.162      6.738     10.166
REMARK INTER + INTRA:          -9.403
REMARK INTER:                  -9.117
REMARK INTRA:                  -0.286
REMARK UNBOUND:                -0.287
REMARK  Name = data/mahkota_dewa_dn/results/docking/ligands/pdb/Phalerin.pdb
REMARK  3 active torsions:
REMARK  status: ('A' for Active; 'I' for Inactive)
REMARK    1  A    between atoms: C1_1  and  O1_2
REMARK    2  A    between atoms: O1_2  and  C2_3
REMARK    3  A    between atoms: C9_13  and  C12_17
REMARK                            x       y       z     vdW  Elec       q    Type
REMARK                         _______ _______ _______ _____ _____    ______ ____
ROOT
ATOM      1  C2  UNL     1      42.176   7.820  13.490  0.00  0.00    +0.180 A 
ATOM      2  C3  UNL     1      43.534   8.057  13.230  0.00  0.00    +0.109 A 
ATOM      3  C4  UNL     1      43.922   8.622  11.999  0.00  0.00    +0.146 A 
ATOM      4  C5  UNL     1      42.975   8.950  11.024  0.00  0.00    +0.096 A 
ATOM      5  C6  UNL     1      41.650   8.711  11.314  0.00  0.00    +0.173 A 
ATOM      6  C7  UNL     1      41.256   8.167  12.515  0.00  0.00    +0.208 A 
ATOM      7  O2  UNL     1      39.903   8.033  12.592  0.00  0.00    -0.449 OA
ATOM      8  C8  UNL     1      39.493   8.568  11.319  0.00  0.00    +0.467 C 
ATOM      9  O3  UNL     1      40.600   8.981  10.492  0.00  0.00    -0.452 OA
ATOM     10  O4  UNL     1      45.229   8.892  11.675  0.00  0.00    -0.454 OA
ATOM     11  C9  UNL     1      46.210   8.647  12.619  0.00  0.00    +0.139 A 
ATOM     12  C10 UNL     1      45.978   8.092  13.815  0.00  0.00    +0.098 A 
ATOM     13  C11 UNL     1      44.603   7.720  14.194  0.00  0.00    +0.197 A 
ATOM     14  O5  UNL     1      44.413   7.141  15.255  0.00  0.00    -0.287 OA
ENDROOT
BRANCH  11  15
ATOM     15  C12 UNL     1      47.571   9.017  12.187  0.00  0.00    +0.017 A 
ATOM     16  C13 UNL     1      47.752   9.965  11.169  0.00  0.00    +0.011 A 
ATOM     17  C14 UNL     1      49.035  10.334  10.754  0.00  0.00    +0.001 A 
ATOM     18  C15 UNL     1      50.153   9.765  11.357  0.00  0.00    +0.000 A 
ATOM     19  C16 UNL     1      49.992   8.829  12.375  0.00  0.00    +0.001 A 
ATOM     20  C17 UNL     1      48.709   8.459  12.791  0.00  0.00    +0.011 A 
ENDBRANCH  11  15
BRANCH   1  22
ATOM     21  C1  UNL     1      41.313   8.432  15.530  0.00  0.00    +0.277 C 
ATOM     22  O1  UNL     1      41.736   7.354  14.697  0.00  0.00    -0.491 OA
ENDBRANCH   1  22
TORSDOF 2
ENDMDL
MODEL 7
REMARK VINA RESULT:    -8.006      7.175      9.154
REMARK INTER + INTRA:          -9.229
REMARK INTER:                  -9.006
REMARK INTRA:                  -0.223
REMARK UNBOUND:                -0.287
REMARK  Name = data/mahkota_dewa_dn/results/docking/ligands/pdb/Phalerin.pdb
REMARK  3 active torsions:
REMARK  status: ('A' for Active; 'I' for Inactive)
REMARK    1  A    between atoms: C1_1  and  O1_2
REMARK    2  A    between atoms: O1_2  and  C2_3
REMARK    3  A    between atoms: C9_13  and  C12_17
REMARK                            x       y       z     vdW  Elec       q    Type
REMARK                         _______ _______ _______ _____ _____    ______ ____
ROOT
ATOM      1  C2  UNL     1      43.139   8.627  11.724  0.00  0.00    +0.180 A 
ATOM      2  C3  UNL     1      44.207   8.005  11.061  0.00  0.00    +0.109 A 
ATOM      3  C4  UNL     1      43.975   7.312   9.857  0.00  0.00    +0.146 A 
ATOM      4  C5  UNL     1      42.692   7.229   9.307  0.00  0.00    +0.096 A 
ATOM      5  C6  UNL     1      41.667   7.857   9.979  0.00  0.00    +0.173 A 
ATOM      6  C7  UNL     1      41.880   8.543  11.152  0.00  0.00    +0.208 A 
ATOM      7  O2  UNL     1      40.732   9.097  11.633  0.00  0.00    -0.449 OA
ATOM      8  C8  UNL     1      39.782   8.697  10.626  0.00  0.00    +0.467 C 
ATOM      9  O3  UNL     1      40.366   7.889   9.583  0.00  0.00    -0.452 OA
ATOM     10  O4  UNL     1      44.969   6.686   9.146  0.00  0.00    -0.454 OA
ATOM     11  C9  UNL     1      46.271   6.782   9.604  0.00  0.00    +0.139 A 
ATOM     12  C10 UNL     1      46.622   7.390  10.744  0.00  0.00    +0.098 A 
ATOM     13  C11 UNL     1      45.590   8.024  11.583  0.00  0.00    +0.197 A 
ATOM     14  O5  UNL     1      45.911   8.506  12.660  0.00  0.00    -0.287 OA
ENDROOT
BRANCH  11  15
ATOM     15  C12 UNL     1      47.266   6.116   8.742  0.00  0.00    +0.017 A 
ATOM     16  C13 UNL     1      48.241   5.282   9.309  0.00  0.00    +0.011 A 
ATOM     17  C14 UNL     1      49.186   4.636   8.506  0.00  0.00    +0.001 A 
ATOM     18  C15 UNL     1      49.162   4.810   7.125  0.00  0.00    +0.000 A 
ATOM     19  C16 UNL     1      48.195   5.627   6.544  0.00  0.00    +0.001 A 
ATOM     20  C17 UNL     1      47.251   6.273   7.347  0.00  0.00    +0.011 A 
ENDBRANCH  11  15
BRANCH   1  22
ATOM     21  C1  UNL     1      42.836   8.697  14.001  0.00  0.00    +0.277 C 
ATOM     22  O1  UNL     1      43.319   9.383  12.848  0.00  0.00    -0.491 OA
ENDBRANCH   1  22
TORSDOF 2
ENDMDL
MODEL 8
REMARK VINA RESULT:    -7.981      7.819     10.958
REMARK INTER + INTRA:          -9.201
REMARK INTER:                  -8.973
REMARK INTRA:                  -0.228
REMARK UNBOUND:                -0.287
REMARK  Name = data/mahkota_dewa_dn/results/docking/ligands/pdb/Phalerin.pdb
REMARK  3 active torsions:
REMARK  status: ('A' for Active; 'I' for Inactive)
REMARK    1  A    between atoms: C1_1  and  O1_2
REMARK    2  A    between atoms: O1_2  and  C2_3
REMARK    3  A    between atoms: C9_13  and  C12_17
REMARK                            x       y       z     vdW  Elec       q    Type
REMARK                         _______ _______ _______ _____ _____    ______ ____
ROOT
ATOM      1  C2  UNL     1      40.923   7.511  12.856  0.00  0.00    +0.180 A 
ATOM      2  C3  UNL     1      42.284   7.603  12.530  0.00  0.00    +0.109 A 
ATOM      3  C4  UNL     1      43.244   7.698  13.556  0.00  0.00    +0.146 A 
ATOM      4  C5  UNL     1      42.865   7.707  14.902  0.00  0.00    +0.096 A 
ATOM      5  C6  UNL     1      41.522   7.608  15.188  0.00  0.00    +0.173 A 
ATOM      6  C7  UNL     1      40.573   7.507  14.197  0.00  0.00    +0.208 A 
ATOM      7  O2  UNL     1      39.314   7.404  14.706  0.00  0.00    -0.449 OA
ATOM      8  C8  UNL     1      39.580   7.436  16.122  0.00  0.00    +0.467 C 
ATOM      9  O3  UNL     1      40.980   7.587  16.435  0.00  0.00    -0.452 OA
ATOM     10  O4  UNL     1      44.594   7.782  13.316  0.00  0.00    -0.454 OA
ATOM     11  C9  UNL     1      45.040   7.718  12.009  0.00  0.00    +0.139 A 
ATOM     12  C10 UNL     1      44.232   7.651  10.943  0.00  0.00    +0.098 A 
ATOM     13  C11 UNL     1      42.771   7.624  11.134  0.00  0.00    +0.197 A 
ATOM     14  O5  UNL     1      42.041   7.642  10.152  0.00  0.00    -0.287 OA
ENDROOT
BRANCH  11  15
ATOM     15  C12 UNL     1      46.508   7.769  11.867  0.00  0.00    +0.017 A 
ATOM     16  C13 UNL     1      47.133   7.111  10.796  0.00  0.00    +0.011 A 
ATOM     17  C14 UNL     1      48.521   7.156  10.641  0.00  0.00    +0.001 A 
ATOM     18  C15 UNL     1      49.301   7.865  11.550  0.00  0.00    +0.000 A 
ATOM     19  C16 UNL     1      48.696   8.531  12.614  0.00  0.00    +0.001 A 
ATOM     20  C17 UNL     1      47.308   8.486  12.769  0.00  0.00    +0.011 A 
ENDBRANCH  11  15
BRANCH   1  22
ATOM     21  C1  UNL     1      39.226   8.537  11.694  0.00  0.00    +0.277 C 
ATOM     22  O1  UNL     1      39.957   7.330  11.907  0.00  0.00    -0.491 OA
ENDBRANCH   1  22
TORSDOF 2
ENDMDL
MODEL 9
REMARK VINA RESULT:    -7.935      7.038     10.905
REMARK INTER + INTRA:          -9.150
REMARK INTER:                  -8.856
REMARK INTRA:                  -0.294
REMARK UNBOUND:                -0.287
REMARK  Name = data/mahkota_dewa_dn/results/docking/ligands/pdb/Phalerin.pdb
REMARK  3 active torsions:
REMARK  status: ('A' for Active; 'I' for Inactive)
REMARK    1  A    between atoms: C1_1  and  O1_2
REMARK    2  A    between atoms: O1_2  and  C2_3
REMARK    3  A    between atoms: C9_13  and  C12_17
REMARK                            x       y       z     vdW  Elec       q    Type
REMARK                         _______ _______ _______ _____ _____    ______ ____
ROOT
ATOM      1  C2  UNL     1      47.300   7.889  11.022  0.00  0.00    +0.180 A 
ATOM      2  C3  UNL     1      45.924   7.855  11.294  0.00  0.00    +0.109 A 
ATOM      3  C4  UNL     1      45.164   6.731  10.916  0.00  0.00    +0.146 A 
ATOM      4  C5  UNL     1      45.756   5.644  10.266  0.00  0.00    +0.096 A 
ATOM      5  C6  UNL     1      47.109   5.706  10.019  0.00  0.00    +0.173 A 
ATOM      6  C7  UNL     1      47.866   6.794  10.390  0.00  0.00    +0.208 A 
ATOM      7  O2  UNL     1      49.178   6.635  10.063  0.00  0.00    -0.449 OA
ATOM      8  C8  UNL     1      49.163   5.325   9.464  0.00  0.00    +0.467 C 
ATOM      9  O3  UNL     1      47.846   4.737   9.413  0.00  0.00    -0.452 OA
ATOM     10  O4  UNL     1      43.816   6.621  11.156  0.00  0.00    -0.454 OA
ATOM     11  C9  UNL     1      43.181   7.635  11.850  0.00  0.00    +0.139 A 
ATOM     12  C10 UNL     1      43.783   8.764  12.244  0.00  0.00    +0.098 A 
ATOM     13  C11 UNL     1      45.214   8.970  11.957  0.00  0.00    +0.197 A 
ATOM     14  O5  UNL     1      45.733  10.037  12.251  0.00  0.00    -0.287 OA
ENDROOT
BRANCH  11  15
ATOM     15  C12 UNL     1      41.747   7.394  12.096  0.00  0.00    +0.017 A 
ATOM     16  C13 UNL     1      41.182   6.146  11.793  0.00  0.00    +0.011 A 
ATOM     17  C14 UNL     1      39.827   5.898  12.029  0.00  0.00    +0.001 A 
ATOM     18  C15 UNL     1      39.021   6.892  12.578  0.00  0.00    +0.000 A 
ATOM     19  C16 UNL     1      39.568   8.133  12.893  0.00  0.00    +0.001 A 
ATOM     20  C17 UNL     1      40.923   8.382  12.657  0.00  0.00    +0.011 A 
ENDBRANCH  11  15
BRANCH   1  22
ATOM     21  C1  UNL     1      48.800   8.552  12.631  0.00  0.00    +0.277 C 
ATOM     22  O1  UNL     1      48.101   8.913  11.441  0.00  0.00    -0.491 OA
ENDBRANCH   1  22
TORSDOF 2
ENDMDL
