MODEL 1
REMARK VINA RESULT:    -8.050      0.000      0.000
REMARK INTER + INTRA:          -9.760
REMARK INTER:                  -9.462
REMARK INTRA:                  -0.298
REMARK UNBOUND:                -0.298
REMARK  Name = data/mahkota_dewa_dn/results/docking/ligands/pdb/Kaempferol.pdb
REMARK  5 active torsions:
REMARK  status: ('A' for Active; 'I' for Inactive)
REMARK    1  A    between atoms: C3_3  and  O6_21
REMARK    2  A    between atoms: C6_6  and  C7_7
REMARK    3  A    between atoms: C8_8  and  O5_20
REMARK    4  A    between atoms: C11_12  and  O4_19
REMARK    5  A    between atoms: C13_14  and  O3_18
REMARK                            x       y       z     vdW  Elec       q    Type
REMARK                         _______ _______ _______ _____ _____    ______ ____
ROOT
ATOM      1  C7  UNL     1      43.790   8.519  12.634  0.00  0.00    +0.181 A 
ATOM      2  C8  UNL     1      42.674   9.036  12.085  0.00  0.00    +0.208 A 
ATOM      3  C9  UNL     1      41.369   8.738  12.721  0.00  0.00    +0.238 A 
ATOM      4  O1  UNL     1      40.329   9.196  12.253  0.00  0.00    -0.283 OA
ATOM      5  C10 UNL     1      41.375   7.890  13.914  0.00  0.00    +0.109 A 
ATOM      6  C11 UNL     1      40.195   7.546  14.579  0.00  0.00    +0.135 A 
ATOM      7  C12 UNL     1      40.245   6.735  15.710  0.00  0.00    +0.091 A 
ATOM      8  C13 UNL     1      41.476   6.273  16.168  0.00  0.00    +0.124 A 
ATOM      9  C14 UNL     1      42.658   6.609  15.514  0.00  0.00    +0.092 A 
ATOM     10  C15 UNL     1      42.602   7.422  14.381  0.00  0.00    +0.147 A 
ATOM     11  O2  UNL     1      43.795   7.725  13.775  0.00  0.00    -0.451 OA
ENDROOT
BRANCH   1  17
ATOM     12  C1  UNL     1      45.677   7.882  11.134  0.00  0.00    +0.015 A 
ATOM     13  C2  UNL     1      46.945   8.103  10.590  0.00  0.00    +0.046 A 
ATOM     14  C3  UNL     1      47.686   9.204  10.998  0.00  0.00    +0.117 A 
ATOM     15  C4  UNL     1      47.179  10.092  11.940  0.00  0.00    +0.046 A 
ATOM     16  C5  UNL     1      45.909   9.870  12.482  0.00  0.00    +0.015 A 
ATOM     17  C6  UNL     1      45.144   8.759  12.093  0.00  0.00    +0.021 A 
BRANCH  14  18
ATOM     18  O6  UNL     1      48.918   9.382  10.443  0.00  0.00    -0.507 OA
ATOM     19  H10 UNL     1      48.819   9.428   9.478  0.00  0.00    +0.292 HD
ENDBRANCH  14  18
ENDBRANCH   1  17
BRANCH   8  20
ATOM     20  O3  UNL     1      41.481   5.481  17.278  0.00  0.00    -0.507 OA
ATOM     21  H7  UNL     1      40.573   5.385  17.610  0.00  0.00    +0.292 HD
ENDBRANCH   8  20
BRANCH   6  22
ATOM     22  O4  UNL     1      38.960   7.971  14.174  0.00  0.00    -0.506 OA
ATOM     23  H8  UNL     1      39.029   8.909  13.887  0.00  0.00    +0.292 HD
ENDBRANCH   6  22
BRANCH   2  24
ATOM     24  O5  UNL     1      42.657   9.849  10.967  0.00  0.00    -0.501 OA
ATOM     25  H9  UNL     1      42.133   9.361  10.299  0.00  0.00    +0.292 HD
ENDBRANCH   2  24
TORSDOF 5
ENDMDL
MODEL 2
REMARK VINA RESULT:    -8.026      1.301      2.952
REMARK INTER + INTRA:          -9.732
REMARK INTER:                  -9.439
REMARK INTRA:                  -0.293
REMARK UNBOUND:                -0.298
REMARK  Name = data/mahkota_dewa_dn/results/docking/ligands/pdb/Kaempferol.pdb
REMARK  5 active torsions:
REMARK  status: ('A' for Active; 'I' for Inactive)
REMARK    1  A    between atoms: C3_3  and  O6_21
REMARK    2  A    between atoms: C6_6  and  C7_7
REMARK    3  A    between atoms: C8_8  and  O5_20
REMARK    4  A    between atoms: C11_12  and  O4_19
REMARK    5  A    between atoms: C13_14  and  O3_18
REMARK                            x       y       z     vdW  Elec       q    Type
REMARK                         _______ _______ _______ _____ _____    ______ ____
ROOT
ATOM      1  C7  UNL     1      43.954   8.276  13.114  0.00  0.00    +0.181 A 
ATOM      2  C8  UNL     1      43.960   7.601  14.278  0.00  0.00    +0.208 A 
ATOM      3  C9  UNL     1      42.665   7.157  14.846  0.00  0.00    +0.238 A 
ATOM      4  O1  UNL     1      42.630   6.534  15.905  0.00  0.00    -0.283 OA
ATOM      5  C10 UNL     1      41.450   7.489  14.100  0.00  0.00    +0.109 A 
ATOM      6  C11 UNL     1      40.182   7.122  14.559  0.00  0.00    +0.135 A 
ATOM      7  C12 UNL     1      39.051   7.458  13.819  0.00  0.00    +0.091 A 
ATOM      8  C13 UNL     1      39.197   8.159  12.626  0.00  0.00    +0.124 A 
ATOM      9  C14 UNL     1      40.455   8.530  12.159  0.00  0.00    +0.092 A 
ATOM     10  C15 UNL     1      41.585   8.190  12.905  0.00  0.00    +0.147 A 
ATOM     11  O2  UNL     1      42.800   8.577  12.399  0.00  0.00    -0.451 OA
ENDROOT
BRANCH   1  17
ATOM     12  C1  UNL     1      45.726   8.027  11.377  0.00  0.00    +0.015 A 
ATOM     13  C2  UNL     1      46.873   8.474  10.717  0.00  0.00    +0.046 A 
ATOM     14  C3  UNL     1      47.484   9.654  11.121  0.00  0.00    +0.117 A 
ATOM     15  C4  UNL     1      46.963  10.399  12.173  0.00  0.00    +0.046 A 
ATOM     16  C5  UNL     1      45.813   9.950  12.832  0.00  0.00    +0.015 A 
ATOM     17  C6  UNL     1      45.184   8.755  12.449  0.00  0.00    +0.021 A 
BRANCH  14  18
ATOM     18  O6  UNL     1      48.601  10.054  10.451  0.00  0.00    -0.507 OA
ATOM     19  H10 UNL     1      49.345  10.076  11.075  0.00  0.00    +0.292 HD
ENDBRANCH  14  18
ENDBRANCH   1  17
BRANCH   8  20
ATOM     20  O3  UNL     1      38.064   8.470  11.931  0.00  0.00    -0.507 OA
ATOM     21  H7  UNL     1      37.517   9.073  12.460  0.00  0.00    +0.292 HD
ENDBRANCH   8  20
BRANCH   6  22
ATOM     22  O4  UNL     1      39.980   6.433  15.723  0.00  0.00    -0.506 OA
ATOM     23  H8  UNL     1      40.190   7.025  16.479  0.00  0.00    +0.292 HD
ENDBRANCH   6  22
BRANCH   2  24
ATOM     24  O5  UNL     1      45.102   7.271  14.985  0.00  0.00    -0.501 OA
ATOM     25  H9  UNL     1      44.825   6.573  15.615  0.00  0.00    +0.292 HD
ENDBRANCH   2  24
TORSDOF 5
ENDMDL
MODEL 3
REMARK VINA RESULT:    -7.726      2.952      6.927
REMARK INTER + INTRA:          -9.379
REMARK INTER:                  -9.091
REMARK INTRA:                  -0.287
REMARK UNBOUND:                -0.298
REMARK  Name = data/mahkota_dewa_dn/results/docking/ligands/pdb/Kaempferol.pdb
REMARK  5 active torsions:
REMARK  status: ('A' for Active; 'I' for Inactive)
REMARK    1  A    between atoms: C3_3  and  O6_21
REMARK    2  A    between atoms: C6_6  and  C7_7
REMARK    3  A    between atoms: C8_8  and  O5_20
REMARK    4  A    between atoms: C11_12  and  O4_19
REMARK    5  A    between atoms: C13_14  and  O3_18
REMARK                            x       y       z     vdW  Elec       q    Type
REMARK                         _______ _______ _______ _____ _____    ______ ____
ROOT
ATOM      1  C7  UNL     1      43.844   7.638  10.483  0.00  0.00    +0.181 A 
ATOM      2  C8  UNL     1      44.230   6.919   9.412  0.00  0.00    +0.208 A 
ATOM      3  C9  UNL     1      45.674   6.640   9.230  0.00  0.00    +0.238 A 
ATOM      4  O1  UNL     1      46.065   5.983   8.267  0.00  0.00    -0.283 OA
ATOM      5  C10 UNL     1      46.598   7.174  10.232  0.00  0.00    +0.109 A 
ATOM      6  C11 UNL     1      47.978   6.972  10.142  0.00  0.00    +0.135 A 
ATOM      7  C12 UNL     1      48.823   7.499  11.115  0.00  0.00    +0.091 A 
ATOM      8  C13 UNL     1      48.281   8.224  12.173  0.00  0.00    +0.124 A 
ATOM      9  C14 UNL     1      46.908   8.431  12.274  0.00  0.00    +0.092 A 
ATOM     10  C15 UNL     1      46.066   7.901  11.294  0.00  0.00    +0.147 A 
ATOM     11  O2  UNL     1      44.722   8.132  11.441  0.00  0.00    -0.451 OA
ENDROOT
BRANCH   1  17
ATOM     12  C1  UNL     1      41.819   9.047  10.118  0.00  0.00    +0.015 A 
ATOM     13  C2  UNL     1      40.479   9.359  10.357  0.00  0.00    +0.046 A 
ATOM     14  C3  UNL     1      39.741   8.590  11.248  0.00  0.00    +0.117 A 
ATOM     15  C4  UNL     1      40.321   7.509  11.902  0.00  0.00    +0.046 A 
ATOM     16  C5  UNL     1      41.663   7.196  11.660  0.00  0.00    +0.015 A 
ATOM     17  C6  UNL     1      42.432   7.965  10.773  0.00  0.00    +0.021 A 
BRANCH  14  18
ATOM     18  O6  UNL     1      38.437   8.929  11.452  0.00  0.00    -0.507 OA
ATOM     19  H10 UNL     1      38.248   8.871  12.403  0.00  0.00    +0.292 HD
ENDBRANCH  14  18
ENDBRANCH   1  17
BRANCH   8  20
ATOM     20  O3  UNL     1      49.142   8.723  13.106  0.00  0.00    -0.507 OA
ATOM     21  H7  UNL     1      49.037   9.687  13.159  0.00  0.00    +0.292 HD
ENDBRANCH   8  20
BRANCH   6  22
ATOM     22  O4  UNL     1      48.565   6.269   9.126  0.00  0.00    -0.506 OA
ATOM     23  H8  UNL     1      48.260   5.335   9.173  0.00  0.00    +0.292 HD
ENDBRANCH   6  22
BRANCH   2  24
ATOM     24  O5  UNL     1      43.366   6.398   8.467  0.00  0.00    -0.501 OA
ATOM     25  H9  UNL     1      42.669   5.936   8.979  0.00  0.00    +0.292 HD
ENDBRANCH   2  24
TORSDOF 5
ENDMDL
MODEL 4
REMARK VINA RESULT:    -7.711      2.895      3.959
REMARK INTER + INTRA:          -9.360
REMARK INTER:                  -9.363
REMARK INTRA:                   0.002
REMARK UNBOUND:                -0.298
REMARK  Name = data/mahkota_dewa_dn/results/docking/ligands/pdb/Kaempferol.pdb
REMARK  5 active torsions:
REMARK  status: ('A' for Active; 'I' for Inactive)
REMARK    1  A    between atoms: C3_3  and  O6_21
REMARK    2  A    between atoms: C6_6  and  C7_7
REMARK    3  A    between atoms: C8_8  and  O5_20
REMARK    4  A    between atoms: C11_12  and  O4_19
REMARK    5  A    between atoms: C13_14  and  O3_18
REMARK                            x       y       z     vdW  Elec       q    Type
REMARK                         _______ _______ _______ _____ _____    ______ ____
ROOT
ATOM      1  C7  UNL     1      45.428   6.608  10.388  0.00  0.00    +0.181 A 
ATOM      2  C8  UNL     1      44.134   6.616  10.015  0.00  0.00    +0.208 A 
ATOM      3  C9  UNL     1      43.117   7.055  10.998  0.00  0.00    +0.238 A 
ATOM      4  O1  UNL     1      41.926   7.080  10.693  0.00  0.00    -0.283 OA
ATOM      5  C10 UNL     1      43.586   7.451  12.327  0.00  0.00    +0.109 A 
ATOM      6  C11 UNL     1      42.702   7.872  13.324  0.00  0.00    +0.135 A 
ATOM      7  C12 UNL     1      43.190   8.239  14.575  0.00  0.00    +0.091 A 
ATOM      8  C13 UNL     1      44.559   8.184  14.820  0.00  0.00    +0.124 A 
ATOM      9  C14 UNL     1      45.449   7.767  13.834  0.00  0.00    +0.092 A 
ATOM     10  C15 UNL     1      44.954   7.400  12.581  0.00  0.00    +0.147 A 
ATOM     11  O2  UNL     1      45.873   6.999  11.645  0.00  0.00    -0.451 OA
ENDROOT
BRANCH   1  17
ATOM     12  C1  UNL     1      47.502   5.297   9.942  0.00  0.00    +0.015 A 
ATOM     13  C2  UNL     1      48.536   4.880   9.101  0.00  0.00    +0.046 A 
ATOM     14  C3  UNL     1      48.601   5.360   7.800  0.00  0.00    +0.117 A 
ATOM     15  C4  UNL     1      47.646   6.250   7.323  0.00  0.00    +0.046 A 
ATOM     16  C5  UNL     1      46.610   6.665   8.165  0.00  0.00    +0.015 A 
ATOM     17  C6  UNL     1      46.528   6.202   9.488  0.00  0.00    +0.021 A 
BRANCH  14  18
ATOM     18  O6  UNL     1      49.627   4.928   7.014  0.00  0.00    -0.507 OA
ATOM     19  H10 UNL     1      50.083   4.202   7.471  0.00  0.00    +0.292 HD
ENDBRANCH  14  18
ENDBRANCH   1  17
BRANCH   8  20
ATOM     20  O3  UNL     1      44.996   8.552  16.059  0.00  0.00    -0.507 OA
ATOM     21  H7  UNL     1      44.255   8.519  16.685  0.00  0.00    +0.292 HD
ENDBRANCH   8  20
BRANCH   6  22
ATOM     22  O4  UNL     1      41.349   7.946  13.139  0.00  0.00    -0.506 OA
ATOM     23  H8  UNL     1      40.902   7.560  13.925  0.00  0.00    +0.292 HD
ENDBRANCH   6  22
BRANCH   2  24
ATOM     24  O5  UNL     1      43.681   6.256   8.759  0.00  0.00    -0.501 OA
ATOM     25  H9  UNL     1      44.062   6.918   8.145  0.00  0.00    +0.292 HD
ENDBRANCH   2  24
TORSDOF 5
ENDMDL
MODEL 5
REMARK VINA RESULT:    -7.684      2.944      4.224
REMARK INTER + INTRA:          -9.330
REMARK INTER:                  -9.029
REMARK INTRA:                  -0.301
REMARK UNBOUND:                -0.298
REMARK  Name = data/mahkota_dewa_dn/results/docking/ligands/pdb/Kaempferol.pdb
REMARK  5 active torsions:
REMARK  status: ('A' for Active; 'I' for Inactive)
REMARK    1  A    between atoms: C3_3  and  O6_21
REMARK    2  A    between atoms: C6_6  and  C7_7
REMARK    3  A    between atoms: C8_8  and  O5_20
REMARK    4  A    between atoms: C11_12  and  O4_19
REMARK    5  A    between atoms: C13_14  and  O3_18
REMARK                            x       y       z     vdW  Elec       q    Type
REMARK                         _______ _______ _______ _____ _____    ______ ____
ROOT
ATOM      1  C7  UNL     1      45.993   8.298  10.980  0.00  0.00    +0.181 A 
ATOM      2  C8  UNL     1      45.827   7.289  10.104  0.00  0.00    +0.208 A 
ATOM      3  C9  UNL     1      44.449   6.857   9.776  0.00  0.00    +0.238 A 
ATOM      4  O1  UNL     1      44.256   5.942   8.977  0.00  0.00    -0.283 OA
ATOM      5  C10 UNL     1      43.345   7.557  10.434  0.00  0.00    +0.109 A 
ATOM      6  C11 UNL     1      42.010   7.216  10.195  0.00  0.00    +0.135 A 
ATOM      7  C12 UNL     1      40.990   7.907  10.843  0.00  0.00    +0.091 A 
ATOM      8  C13 UNL     1      41.311   8.934  11.725  0.00  0.00    +0.124 A 
ATOM      9  C14 UNL     1      42.636   9.283  11.971  0.00  0.00    +0.092 A 
ATOM     10  C15 UNL     1      43.655   8.587  11.318  0.00  0.00    +0.147 A 
ATOM     11  O2  UNL     1      44.943   8.972  11.593  0.00  0.00    -0.451 OA
ENDROOT
BRANCH   1  17
ATOM     12  C1  UNL     1      47.844   9.949  10.722  0.00  0.00    +0.015 A 
ATOM     13  C2  UNL     1      49.083  10.476  11.093  0.00  0.00    +0.046 A 
ATOM     14  C3  UNL     1      49.804   9.880  12.120  0.00  0.00    +0.117 A 
ATOM     15  C4  UNL     1      49.304   8.767  12.786  0.00  0.00    +0.046 A 
ATOM     16  C5  UNL     1      48.062   8.243  12.414  0.00  0.00    +0.015 A 
ATOM     17  C6  UNL     1      47.319   8.820  11.373  0.00  0.00    +0.021 A 
BRANCH  14  18
ATOM     18  O6  UNL     1      51.009  10.425  12.450  0.00  0.00    -0.507 OA
ATOM     19  H10 UNL     1      51.699   9.755  12.313  0.00  0.00    +0.292 HD
ENDBRANCH  14  18
ENDBRANCH   1  17
BRANCH   8  20
ATOM     20  O3  UNL     1      40.282   9.586  12.340  0.00  0.00    -0.507 OA
ATOM     21  H7  UNL     1      40.234  10.498  12.008  0.00  0.00    +0.292 HD
ENDBRANCH   8  20
BRANCH   6  22
ATOM     22  O4  UNL     1      41.637   6.216   9.340  0.00  0.00    -0.506 OA
ATOM     23  H8  UNL     1      41.979   5.362   9.686  0.00  0.00    +0.292 HD
ENDBRANCH   6  22
BRANCH   2  24
ATOM     24  O5  UNL     1      46.862   6.629   9.467  0.00  0.00    -0.501 OA
ATOM     25  H9  UNL     1      47.551   6.502  10.152  0.00  0.00    +0.292 HD
ENDBRANCH   2  24
TORSDOF 5
ENDMDL
MODEL 6
REMARK VINA RESULT:    -7.612      1.972      3.773
REMARK INTER + INTRA:          -9.245
REMARK INTER:                  -8.970
REMARK INTRA:                  -0.275
REMARK UNBOUND:                -0.298
REMARK  Name = data/mahkota_dewa_dn/results/docking/ligands/pdb/Kaempferol.pdb
REMARK  5 active torsions:
REMARK  status: ('A' for Active; 'I' for Inactive)
REMARK    1  A    between atoms: C3_3  and  O6_21
REMARK    2  A    between atoms: C6_6  and  C7_7
REMARK    3  A    between atoms: C8_8  and  O5_20
REMARK    4  A    between atoms: C11_12  and  O4_19
REMARK    5  A    between atoms: C13_14  and  O3_18
REMARK                            x       y       z     vdW  Elec       q    Type
REMARK                         _______ _______ _______ _____ _____    ______ ____
ROOT
ATOM      1  C7  UNL     1      44.423   8.875  12.172  0.00  0.00    +0.181 A 
ATOM      2  C8  UNL     1      43.868   8.778  13.394  0.00  0.00    +0.208 A 
ATOM      3  C9  UNL     1      42.391   8.717  13.498  0.00  0.00    +0.238 A 
ATOM      4  O1  UNL     1      41.846   8.624  14.596  0.00  0.00    -0.283 OA
ATOM      5  C10 UNL     1      41.622   8.773  12.253  0.00  0.00    +0.109 A 
ATOM      6  C11 UNL     1      40.225   8.732  12.248  0.00  0.00    +0.135 A 
ATOM      7  C12 UNL     1      39.533   8.788  11.042  0.00  0.00    +0.091 A 
ATOM      8  C13 UNL     1      40.242   8.885   9.848  0.00  0.00    +0.124 A 
ATOM      9  C14 UNL     1      41.634   8.927   9.840  0.00  0.00    +0.092 A 
ATOM     10  C15 UNL     1      42.323   8.870  11.053  0.00  0.00    +0.147 A 
ATOM     11  O2  UNL     1      43.693   8.912  10.990  0.00  0.00    -0.451 OA
ENDROOT
BRANCH   1  17
ATOM     12  C1  UNL     1      46.577  10.132  12.162  0.00  0.00    +0.015 A 
ATOM     13  C2  UNL     1      47.960  10.200  11.981  0.00  0.00    +0.046 A 
ATOM     14  C3  UNL     1      48.660   9.066  11.590  0.00  0.00    +0.117 A 
ATOM     15  C4  UNL     1      47.999   7.861  11.380  0.00  0.00    +0.046 A 
ATOM     16  C5  UNL     1      46.614   7.794  11.563  0.00  0.00    +0.015 A 
ATOM     17  C6  UNL     1      45.883   8.929  11.948  0.00  0.00    +0.021 A 
BRANCH  14  18
ATOM     18  O6  UNL     1      50.008   9.177  11.424  0.00  0.00    -0.507 OA
ATOM     19  H10 UNL     1      50.438   9.045  12.285  0.00  0.00    +0.292 HD
ENDBRANCH  14  18
ENDBRANCH   1  17
BRANCH   8  20
ATOM     20  O3  UNL     1      39.526   8.939   8.688  0.00  0.00    -0.507 OA
ATOM     21  H7  UNL     1      39.901   9.621   8.109  0.00  0.00    +0.292 HD
ENDBRANCH   8  20
BRANCH   6  22
ATOM     22  O4  UNL     1      39.478   8.636  13.389  0.00  0.00    -0.506 OA
ATOM     23  H8  UNL     1      40.003   8.992  14.140  0.00  0.00    +0.292 HD
ENDBRANCH   6  22
BRANCH   2  24
ATOM     24  O5  UNL     1      44.583   8.711  14.575  0.00  0.00    -0.501 OA
ATOM     25  H9  UNL     1      44.599   7.761  14.817  0.00  0.00    +0.292 HD
ENDBRANCH   2  24
TORSDOF 5
ENDMDL
MODEL 7
REMARK VINA RESULT:    -7.581      2.163      3.116
REMARK INTER + INTRA:          -9.208
REMARK INTER:                  -9.557
REMARK INTRA:                   0.349
REMARK UNBOUND:                -0.298
REMARK  Name = data/mahkota_dewa_dn/results/docking/ligands/pdb/Kaempferol.pdb
REMARK  5 active torsions:
REMARK  status: ('A' for Active; 'I' for Inactive)
REMARK    1  A    between atoms: C3_3  and  O6_21
REMARK    2  A    between atoms: C6_6  and  C7_7
REMARK    3  A    between atoms: C8_8  and  O5_20
REMARK    4  A    between atoms: C11_12  and  O4_19
REMARK    5  A    between atoms: C13_14  and  O3_18
REMARK                            x       y       z     vdW  Elec       q    Type
REMARK                         _______ _______ _______ _____ _____    ______ ____
ROOT
ATOM      1  C7  UNL     1      43.868   7.761  12.668  0.00  0.00    +0.181 A 
ATOM      2  C8  UNL     1      44.508   8.462  13.623  0.00  0.00    +0.208 A 
ATOM      3  C9  UNL     1      43.780   8.785  14.872  0.00  0.00    +0.238 A 
ATOM      4  O1  UNL     1      44.332   9.419  15.769  0.00  0.00    -0.283 OA
ATOM      5  C10 UNL     1      42.396   8.322  14.988  0.00  0.00    +0.109 A 
ATOM      6  C11 UNL     1      41.624   8.584  16.123  0.00  0.00    +0.135 A 
ATOM      7  C12 UNL     1      40.311   8.126  16.192  0.00  0.00    +0.091 A 
ATOM      8  C13 UNL     1      39.779   7.408  15.126  0.00  0.00    +0.124 A 
ATOM      9  C14 UNL     1      40.538   7.140  13.990  0.00  0.00    +0.092 A 
ATOM     10  C15 UNL     1      41.854   7.602  13.926  0.00  0.00    +0.147 A 
ATOM     11  O2  UNL     1      42.559   7.309  12.786  0.00  0.00    -0.451 OA
ENDROOT
BRANCH   1  17
ATOM     12  C1  UNL     1      43.769   6.620  10.454  0.00  0.00    +0.015 A 
ATOM     13  C2  UNL     1      44.336   6.262   9.227  0.00  0.00    +0.046 A 
ATOM     14  C3  UNL     1      45.632   6.658   8.927  0.00  0.00    +0.117 A 
ATOM     15  C4  UNL     1      46.373   7.410   9.832  0.00  0.00    +0.046 A 
ATOM     16  C5  UNL     1      45.804   7.769  11.058  0.00  0.00    +0.015 A 
ATOM     17  C6  UNL     1      44.499   7.372  11.389  0.00  0.00    +0.021 A 
BRANCH  14  18
ATOM     18  O6  UNL     1      46.147   6.287   7.721  0.00  0.00    -0.507 OA
ATOM     19  H10 UNL     1      45.639   5.528   7.388  0.00  0.00    +0.292 HD
ENDBRANCH  14  18
ENDBRANCH   1  17
BRANCH   8  20
ATOM     20  O3  UNL     1      38.489   6.978  15.233  0.00  0.00    -0.507 OA
ATOM     21  H7  UNL     1      37.886   7.715  15.040  0.00  0.00    +0.292 HD
ENDBRANCH   8  20
BRANCH   6  22
ATOM     22  O4  UNL     1      42.096   9.284  17.200  0.00  0.00    -0.506 OA
ATOM     23  H8  UNL     1      42.826   8.771  17.613  0.00  0.00    +0.292 HD
ENDBRANCH   6  22
BRANCH   2  24
ATOM     24  O5  UNL     1      45.818   8.894  13.530  0.00  0.00    -0.501 OA
ATOM     25  H9  UNL     1      45.887   9.330  12.655  0.00  0.00    +0.292 HD
ENDBRANCH   2  24
TORSDOF 5
ENDMDL
MODEL 8
REMARK VINA RESULT:    -7.429      2.223      3.976
REMARK INTER + INTRA:          -9.029
REMARK INTER:                  -8.728
REMARK INTRA:                  -0.302
REMARK UNBOUND:                -0.298
REMARK  Name = data/mahkota_dewa_dn/results/docking/ligands/pdb/Kaempferol.pdb
REMARK  5 active torsions:
REMARK  status: ('A' for Active; 'I' for Inactive)
REMARK    1  A    between atoms: C3_3  and  O6_21
REMARK    2  A    between atoms: C6_6  and  C7_7
REMARK    3  A    between atoms: C8_8  and  O5_20
REMARK    4  A    between atoms: C11_12  and  O4_19
REMARK    5  A    between atoms: C13_14  and  O3_18
REMARK                            x       y       z     vdW  Elec       q    Type
REMARK                         _______ _______ _______ _____ _____    ______ ____
ROOT
ATOM      1  C7  UNL     1      44.304   7.526  11.348  0.00  0.00    +0.181 A 
ATOM      2  C8  UNL     1      43.978   7.492  12.653  0.00  0.00    +0.208 A 
ATOM      3  C9  UNL     1      42.588   7.826  13.045  0.00  0.00    +0.238 A 
ATOM      4  O1  UNL     1      42.251   7.801  14.227  0.00  0.00    -0.283 OA
ATOM      5  C10 UNL     1      41.651   8.181  11.978  0.00  0.00    +0.109 A 
ATOM      6  C11 UNL     1      40.322   8.520  12.248  0.00  0.00    +0.135 A 
ATOM      7  C12 UNL     1      39.464   8.853  11.203  0.00  0.00    +0.091 A 
ATOM      8  C13 UNL     1      39.940   8.845   9.896  0.00  0.00    +0.124 A 
ATOM      9  C14 UNL     1      41.262   8.508   9.615  0.00  0.00    +0.092 A 
ATOM     10  C15 UNL     1      42.118   8.175  10.666  0.00  0.00    +0.147 A 
ATOM     11  O2  UNL     1      43.409   7.850  10.334  0.00  0.00    -0.451 OA
ENDROOT
BRANCH   1  17
ATOM     12  C1  UNL     1      45.938   5.895  10.409  0.00  0.00    +0.015 A 
ATOM     13  C2  UNL     1      47.199   5.569   9.902  0.00  0.00    +0.046 A 
ATOM     14  C3  UNL     1      48.181   6.548   9.821  0.00  0.00    +0.117 A 
ATOM     15  C4  UNL     1      47.923   7.850  10.233  0.00  0.00    +0.046 A 
ATOM     16  C5  UNL     1      46.659   8.174  10.739  0.00  0.00    +0.015 A 
ATOM     17  C6  UNL     1      45.653   7.200  10.841  0.00  0.00    +0.021 A 
BRANCH  14  18
ATOM     18  O6  UNL     1      49.397   6.188   9.321  0.00  0.00    -0.507 OA
ATOM     19  H10 UNL     1      50.088   6.530   9.912  0.00  0.00    +0.292 HD
ENDBRANCH  14  18
ENDBRANCH   1  17
BRANCH   8  20
ATOM     20  O3  UNL     1      39.067   9.177   8.902  0.00  0.00    -0.507 OA
ATOM     21  H7  UNL     1      38.860  10.124   8.959  0.00  0.00    +0.292 HD
ENDBRANCH   8  20
BRANCH   6  22
ATOM     22  O4  UNL     1      39.801   8.545  13.512  0.00  0.00    -0.506 OA
ATOM     23  H8  UNL     1      40.235   9.268  14.018  0.00  0.00    +0.292 HD
ENDBRANCH   6  22
BRANCH   2  24
ATOM     24  O5  UNL     1      44.850   7.145  13.668  0.00  0.00    -0.501 OA
ATOM     25  H9  UNL     1      45.152   7.994  14.053  0.00  0.00    +0.292 HD
ENDBRANCH   2  24
TORSDOF 5
ENDMDL
MODEL 9
REMARK VINA RESULT:    -7.342      1.925      6.832
REMARK INTER + INTRA:          -8.927
REMARK INTER:                  -8.696
REMARK INTRA:                  -0.232
REMARK UNBOUND:                -0.298
REMARK  Name = data/mahkota_dewa_dn/results/docking/ligands/pdb/Kaempferol.pdb
REMARK  5 active torsions:
REMARK  status: ('A' for Active; 'I' for Inactive)
REMARK    1  A    between atoms: C3_3  and  O6_21
REMARK    2  A    between atoms: C6_6  and  C7_7
REMARK    3  A    between atoms: C8_8  and  O5_20
REMARK    4  A    between atoms: C11_12  and  O4_19
REMARK    5  A    between atoms: C13_14  and  O3_18
REMARK                            x       y       z     vdW  Elec       q    Type
REMARK                         _______ _______ _______ _____ _____    ______ ____
ROOT
ATOM      1  C7  UNL     1      43.074   7.405  12.074  0.00  0.00    +0.181 A 
ATOM      2  C8  UNL     1      43.307   6.631  10.997  0.00  0.00    +0.208 A 
ATOM      3  C9  UNL     1      44.587   6.799  10.269  0.00  0.00    +0.238 A 
ATOM      4  O1  UNL     1      44.839   6.108   9.284  0.00  0.00    -0.283 OA
ATOM      5  C10 UNL     1      45.522   7.809  10.768  0.00  0.00    +0.109 A 
ATOM      6  C11 UNL     1      46.750   8.047  10.144  0.00  0.00    +0.135 A 
ATOM      7  C12 UNL     1      47.610   9.017  10.650  0.00  0.00    +0.091 A 
ATOM      8  C13 UNL     1      47.237   9.743  11.777  0.00  0.00    +0.124 A 
ATOM      9  C14 UNL     1      46.016   9.515  12.408  0.00  0.00    +0.092 A 
ATOM     10  C15 UNL     1      45.158   8.540  11.895  0.00  0.00    +0.147 A 
ATOM     11  O2  UNL     1      43.970   8.353  12.555  0.00  0.00    -0.451 OA
ENDROOT
BRANCH   1  17
ATOM     12  C1  UNL     1      41.905   6.838  14.202  0.00  0.00    +0.015 A 
ATOM     13  C2  UNL     1      40.756   6.769  14.994  0.00  0.00    +0.046 A 
ATOM     14  C3  UNL     1      39.536   7.182  14.474  0.00  0.00    +0.117 A 
ATOM     15  C4  UNL     1      39.446   7.669  13.175  0.00  0.00    +0.046 A 
ATOM     16  C5  UNL     1      40.598   7.738  12.384  0.00  0.00    +0.015 A 
ATOM     17  C6  UNL     1      41.840   7.317  12.883  0.00  0.00    +0.021 A 
BRANCH  14  18
ATOM     18  O6  UNL     1      38.441   7.098  15.280  0.00  0.00    -0.507 OA
ATOM     19  H10 UNL     1      37.868   6.386  14.950  0.00  0.00    +0.292 HD
ENDBRANCH  14  18
ENDBRANCH   1  17
BRANCH   8  20
ATOM     20  O3  UNL     1      48.108  10.685  12.241  0.00  0.00    -0.507 OA
ATOM     21  H7  UNL     1      48.708  10.279  12.888  0.00  0.00    +0.292 HD
ENDBRANCH   8  20
BRANCH   6  22
ATOM     22  O4  UNL     1      47.168   7.364   9.035  0.00  0.00    -0.506 OA
ATOM     23  H8  UNL     1      46.768   6.466   9.049  0.00  0.00    +0.292 HD
ENDBRANCH   6  22
BRANCH   2  24
ATOM     24  O5  UNL     1      42.438   5.666  10.525  0.00  0.00    -0.501 OA
ATOM     25  H9  UNL     1      42.580   5.640   9.555  0.00  0.00    +0.292 HD
ENDBRANCH   2  24
TORSDOF 5
ENDMDL
