MODEL 1
REMARK VINA RESULT:    -8.566      0.000      0.000
REMARK INTER + INTRA:         -10.081
REMARK INTER:                  -9.818
REMARK INTRA:                  -0.263
REMARK UNBOUND:                -0.263
REMARK  Name = data/mahkota_dewa_dn/results/docking/ligands/pdb/Apigenin.pdb
REMARK  4 active torsions:
REMARK  status: ('A' for Active; 'I' for Inactive)
REMARK    1  A    between atoms: C3_3  and  O5_20
REMARK    2  A    between atoms: C6_6  and  C7_7
REMARK    3  A    between atoms: C11_12  and  O4_19
REMARK    4  A    between atoms: C13_14  and  O3_18
REMARK                            x       y       z     vdW  Elec       q    Type
REMARK                         _______ _______ _______ _____ _____    ______ ____
ROOT
ATOM      1  C7  UNL     1      61.658  19.982   9.782  0.00  0.00    +0.139 A 
ATOM      2  C8  UNL     1      61.125  20.543   8.687  0.00  0.00    +0.098 A 
ATOM      3  C9  UNL     1      60.157  19.774   7.892  0.00  0.00    +0.197 A 
ATOM      4  O1  UNL     1      59.644  20.235   6.880  0.00  0.00    -0.287 OA
ATOM      5  C10 UNL     1      59.829  18.423   8.361  0.00  0.00    +0.105 A 
ATOM      6  C11 UNL     1      58.921  17.607   7.679  0.00  0.00    +0.135 A 
ATOM      7  C12 UNL     1      58.632  16.330   8.153  0.00  0.00    +0.091 A 
ATOM      8  C13 UNL     1      59.256  15.878   9.312  0.00  0.00    +0.124 A 
ATOM      9  C14 UNL     1      60.162  16.682  10.001  0.00  0.00    +0.092 A 
ATOM     10  C15 UNL     1      60.448  17.960   9.521  0.00  0.00    +0.146 A 
ATOM     11  O2  UNL     1      61.345  18.710  10.239  0.00  0.00    -0.454 OA
ENDROOT
BRANCH   1  17
ATOM     12  C1  UNL     1      62.177  21.445  11.735  0.00  0.00    +0.015 A 
ATOM     13  C2  UNL     1      63.078  22.130  12.556  0.00  0.00    +0.046 A 
ATOM     14  C3  UNL     1      64.438  22.071  12.276  0.00  0.00    +0.117 A 
ATOM     15  C4  UNL     1      64.909  21.337  11.195  0.00  0.00    +0.046 A 
ATOM     16  C5  UNL     1      64.008  20.654  10.375  0.00  0.00    +0.015 A 
ATOM     17  C6  UNL     1      62.628  20.705  10.629  0.00  0.00    +0.018 A 
BRANCH  14  18
ATOM     18  O5  UNL     1      65.353  22.721  13.049  0.00  0.00    -0.507 OA
ATOM     19  H10 UNL     1      64.971  23.566  13.340  0.00  0.00    +0.292 HD
ENDBRANCH  14  18
ENDBRANCH   1  17
BRANCH   8  20
ATOM     20  O3  UNL     1      59.005  14.636   9.814  0.00  0.00    -0.507 OA
ATOM     21  H8  UNL     1      59.813  14.299  10.237  0.00  0.00    +0.292 HD
ENDBRANCH   8  20
BRANCH   6  22
ATOM     22  O4  UNL     1      58.279  18.001   6.535  0.00  0.00    -0.506 OA
ATOM     23  H9  UNL     1      57.888  18.890   6.694  0.00  0.00    +0.292 HD
ENDBRANCH   6  22
TORSDOF 4
ENDMDL
MODEL 2
REMARK VINA RESULT:    -8.480      1.715      6.560
REMARK INTER + INTRA:          -9.983
REMARK INTER:                  -9.668
REMARK INTRA:                  -0.315
REMARK UNBOUND:                -0.263
REMARK  Name = data/mahkota_dewa_dn/results/docking/ligands/pdb/Apigenin.pdb
REMARK  4 active torsions:
REMARK  status: ('A' for Active; 'I' for Inactive)
REMARK    1  A    between atoms: C3_3  and  O5_20
REMARK    2  A    between atoms: C6_6  and  C7_7
REMARK    3  A    between atoms: C11_12  and  O4_19
REMARK    4  A    between atoms: C13_14  and  O3_18
REMARK                            x       y       z     vdW  Elec       q    Type
REMARK                         _______ _______ _______ _____ _____    ______ ____
ROOT
ATOM      1  C7  UNL     1      60.651  19.407   8.957  0.00  0.00    +0.139 A 
ATOM      2  C8  UNL     1      60.547  20.362   8.021  0.00  0.00    +0.098 A 
ATOM      3  C9  UNL     1      61.242  21.641   8.226  0.00  0.00    +0.197 A 
ATOM      4  O1  UNL     1      61.176  22.548   7.406  0.00  0.00    -0.287 OA
ATOM      5  C10 UNL     1      62.022  21.787   9.460  0.00  0.00    +0.105 A 
ATOM      6  C11 UNL     1      62.721  22.963   9.753  0.00  0.00    +0.135 A 
ATOM      7  C12 UNL     1      63.453  23.068  10.933  0.00  0.00    +0.091 A 
ATOM      8  C13 UNL     1      63.480  21.990  11.814  0.00  0.00    +0.124 A 
ATOM      9  C14 UNL     1      62.788  20.814  11.533  0.00  0.00    +0.092 A 
ATOM     10  C15 UNL     1      62.057  20.715  10.349  0.00  0.00    +0.146 A 
ATOM     11  O2  UNL     1      61.396  19.534  10.120  0.00  0.00    -0.454 OA
ENDROOT
BRANCH   1  17
ATOM     12  C1  UNL     1      60.175  17.100   9.776  0.00  0.00    +0.015 A 
ATOM     13  C2  UNL     1      59.547  15.856   9.659  0.00  0.00    +0.046 A 
ATOM     14  C3  UNL     1      58.722  15.608   8.569  0.00  0.00    +0.117 A 
ATOM     15  C4  UNL     1      58.511  16.582   7.602  0.00  0.00    +0.046 A 
ATOM     16  C5  UNL     1      59.138  17.824   7.721  0.00  0.00    +0.015 A 
ATOM     17  C6  UNL     1      59.986  18.098   8.806  0.00  0.00    +0.018 A 
BRANCH  14  18
ATOM     18  O5  UNL     1      58.089  14.411   8.413  0.00  0.00    -0.507 OA
ATOM     19  H10 UNL     1      57.705  14.376   7.521  0.00  0.00    +0.292 HD
ENDBRANCH  14  18
ENDBRANCH   1  17
BRANCH   8  20
ATOM     20  O3  UNL     1      64.182  22.046  12.981  0.00  0.00    -0.507 OA
ATOM     21  H8  UNL     1      63.623  22.453  13.664  0.00  0.00    +0.292 HD
ENDBRANCH   8  20
BRANCH   6  22
ATOM     22  O4  UNL     1      62.729  24.051   8.923  0.00  0.00    -0.506 OA
ATOM     23  H9  UNL     1      62.771  23.729   7.994  0.00  0.00    +0.292 HD
ENDBRANCH   6  22
TORSDOF 4
ENDMDL
MODEL 3
REMARK VINA RESULT:    -8.414      3.287      6.706
REMARK INTER + INTRA:          -9.907
REMARK INTER:                  -9.596
REMARK INTRA:                  -0.310
REMARK UNBOUND:                -0.263
REMARK  Name = data/mahkota_dewa_dn/results/docking/ligands/pdb/Apigenin.pdb
REMARK  4 active torsions:
REMARK  status: ('A' for Active; 'I' for Inactive)
REMARK    1  A    between atoms: C3_3  and  O5_20
REMARK    2  A    between atoms: C6_6  and  C7_7
REMARK    3  A    between atoms: C11_12  and  O4_19
REMARK    4  A    between atoms: C13_14  and  O3_18
REMARK                            x       y       z     vdW  Elec       q    Type
REMARK                         _______ _______ _______ _____ _____    ______ ____
ROOT
ATOM      1  C7  UNL     1      61.645  21.183   9.286  0.00  0.00    +0.139 A 
ATOM      2  C8  UNL     1      62.032  22.065  10.220  0.00  0.00    +0.098 A 
ATOM      3  C9  UNL     1      62.344  23.442   9.813  0.00  0.00    +0.197 A 
ATOM      4  O1  UNL     1      62.707  24.286  10.623  0.00  0.00    -0.287 OA
ATOM      5  C10 UNL     1      62.204  23.767   8.389  0.00  0.00    +0.105 A 
ATOM      6  C11 UNL     1      62.476  25.047   7.896  0.00  0.00    +0.135 A 
ATOM      7  C12 UNL     1      62.332  25.322   6.538  0.00  0.00    +0.091 A 
ATOM      8  C13 UNL     1      61.912  24.308   5.681  0.00  0.00    +0.124 A 
ATOM      9  C14 UNL     1      61.637  23.029   6.160  0.00  0.00    +0.092 A 
ATOM     10  C15 UNL     1      61.785  22.760   7.521  0.00  0.00    +0.146 A 
ATOM     11  O2  UNL     1      61.499  21.485   7.941  0.00  0.00    -0.454 OA
ENDROOT
BRANCH   1  17
ATOM     12  C1  UNL     1      60.562  19.005   8.735  0.00  0.00    +0.015 A 
ATOM     13  C2  UNL     1      60.238  17.678   9.036  0.00  0.00    +0.046 A 
ATOM     14  C3  UNL     1      60.667  17.127  10.238  0.00  0.00    +0.117 A 
ATOM     15  C4  UNL     1      61.414  17.878  11.137  0.00  0.00    +0.046 A 
ATOM     16  C5  UNL     1      61.736  19.203  10.834  0.00  0.00    +0.015 A 
ATOM     17  C6  UNL     1      61.307  19.788   9.632  0.00  0.00    +0.018 A 
BRANCH  14  18
ATOM     18  O5  UNL     1      60.376  15.839  10.575  0.00  0.00    -0.507 OA
ATOM     19  H10 UNL     1      59.724  15.845  11.295  0.00  0.00    +0.292 HD
ENDBRANCH  14  18
ENDBRANCH   1  17
BRANCH   8  20
ATOM     20  O3  UNL     1      61.756  24.528   4.345  0.00  0.00    -0.507 OA
ATOM     21  H8  UNL     1      61.214  25.326   4.220  0.00  0.00    +0.292 HD
ENDBRANCH   8  20
BRANCH   6  22
ATOM     22  O4  UNL     1      62.890  26.080   8.694  0.00  0.00    -0.506 OA
ATOM     23  H9  UNL     1      63.848  26.232   8.527  0.00  0.00    +0.292 HD
ENDBRANCH   6  22
TORSDOF 4
ENDMDL
MODEL 4
REMARK VINA RESULT:    -8.332      2.139      3.666
REMARK INTER + INTRA:          -9.813
REMARK INTER:                  -9.498
REMARK INTRA:                  -0.314
REMARK UNBOUND:                -0.263
REMARK  Name = data/mahkota_dewa_dn/results/docking/ligands/pdb/Apigenin.pdb
REMARK  4 active torsions:
REMARK  status: ('A' for Active; 'I' for Inactive)
REMARK    1  A    between atoms: C3_3  and  O5_20
REMARK    2  A    between atoms: C6_6  and  C7_7
REMARK    3  A    between atoms: C11_12  and  O4_19
REMARK    4  A    between atoms: C13_14  and  O3_18
REMARK                            x       y       z     vdW  Elec       q    Type
REMARK                         _______ _______ _______ _____ _____    ______ ____
ROOT
ATOM      1  C7  UNL     1      59.521  17.461   8.365  0.00  0.00    +0.139 A 
ATOM      2  C8  UNL     1      59.119  17.873   7.154  0.00  0.00    +0.098 A 
ATOM      3  C9  UNL     1      58.223  17.012   6.370  0.00  0.00    +0.197 A 
ATOM      4  O1  UNL     1      57.829  17.337   5.256  0.00  0.00    -0.287 OA
ATOM      5  C10 UNL     1      57.816  15.740   6.978  0.00  0.00    +0.105 A 
ATOM      6  C11 UNL     1      56.966  14.848   6.316  0.00  0.00    +0.135 A 
ATOM      7  C12 UNL     1      56.598  13.649   6.923  0.00  0.00    +0.091 A 
ATOM      8  C13 UNL     1      57.086  13.353   8.194  0.00  0.00    +0.124 A 
ATOM      9  C14 UNL     1      57.933  14.235   8.862  0.00  0.00    +0.092 A 
ATOM     10  C15 UNL     1      58.298  15.433   8.249  0.00  0.00    +0.146 A 
ATOM     11  O2  UNL     1      59.132  16.266   8.951  0.00  0.00    -0.454 OA
ENDROOT
BRANCH   1  17
ATOM     12  C1  UNL     1      60.925  17.760  10.405  0.00  0.00    +0.015 A 
ATOM     13  C2  UNL     1      61.779  18.517  11.213  0.00  0.00    +0.046 A 
ATOM     14  C3  UNL     1      62.128  19.804  10.820  0.00  0.00    +0.117 A 
ATOM     15  C4  UNL     1      61.643  20.340   9.634  0.00  0.00    +0.046 A 
ATOM     16  C5  UNL     1      60.790  19.582   8.828  0.00  0.00    +0.015 A 
ATOM     17  C6  UNL     1      60.413  18.284   9.207  0.00  0.00    +0.018 A 
BRANCH  14  18
ATOM     18  O5  UNL     1      62.957  20.578  11.574  0.00  0.00    -0.507 OA
ATOM     19  H10 UNL     1      63.644  20.953  10.998  0.00  0.00    +0.292 HD
ENDBRANCH  14  18
ENDBRANCH   1  17
BRANCH   8  20
ATOM     20  O3  UNL     1      56.754  12.193   8.827  0.00  0.00    -0.507 OA
ATOM     21  H8  UNL     1      55.827  11.980   8.628  0.00  0.00    +0.292 HD
ENDBRANCH   8  20
BRANCH   6  22
ATOM     22  O4  UNL     1      56.457  15.089   5.068  0.00  0.00    -0.506 OA
ATOM     23  H9  UNL     1      56.663  16.020   4.827  0.00  0.00    +0.292 HD
ENDBRANCH   6  22
TORSDOF 4
ENDMDL
MODEL 5
REMARK VINA RESULT:    -8.292      2.591      7.794
REMARK INTER + INTRA:          -9.766
REMARK INTER:                  -9.465
REMARK INTRA:                  -0.301
REMARK UNBOUND:                -0.263
REMARK  Name = data/mahkota_dewa_dn/results/docking/ligands/pdb/Apigenin.pdb
REMARK  4 active torsions:
REMARK  status: ('A' for Active; 'I' for Inactive)
REMARK    1  A    between atoms: C3_3  and  O5_20
REMARK    2  A    between atoms: C6_6  and  C7_7
REMARK    3  A    between atoms: C11_12  and  O4_19
REMARK    4  A    between atoms: C13_14  and  O3_18
REMARK                            x       y       z     vdW  Elec       q    Type
REMARK                         _______ _______ _______ _____ _____    ______ ____
ROOT
ATOM      1  C7  UNL     1      58.199  15.835   7.907  0.00  0.00    +0.139 A 
ATOM      2  C8  UNL     1      58.057  16.802   6.988  0.00  0.00    +0.098 A 
ATOM      3  C9  UNL     1      58.815  18.051   7.146  0.00  0.00    +0.197 A 
ATOM      4  O1  UNL     1      58.718  18.969   6.340  0.00  0.00    -0.287 OA
ATOM      5  C10 UNL     1      59.696  18.156   8.314  0.00  0.00    +0.105 A 
ATOM      6  C11 UNL     1      60.461  19.302   8.557  0.00  0.00    +0.135 A 
ATOM      7  C12 UNL     1      61.288  19.368   9.676  0.00  0.00    +0.091 A 
ATOM      8  C13 UNL     1      61.345  18.281  10.544  0.00  0.00    +0.124 A 
ATOM      9  C14 UNL     1      60.588  17.135  10.312  0.00  0.00    +0.092 A 
ATOM     10  C15 UNL     1      59.760  17.075   9.191  0.00  0.00    +0.146 A 
ATOM     11  O2  UNL     1      59.039  15.923   9.007  0.00  0.00    -0.454 OA
ENDROOT
BRANCH   1  17
ATOM     12  C1  UNL     1      57.161  14.028   6.537  0.00  0.00    +0.015 A 
ATOM     13  C2  UNL     1      56.483  12.811   6.412  0.00  0.00    +0.046 A 
ATOM     14  C3  UNL     1      56.122  12.110   7.557  0.00  0.00    +0.117 A 
ATOM     15  C4  UNL     1      56.430  12.604   8.818  0.00  0.00    +0.046 A 
ATOM     16  C5  UNL     1      57.107  13.820   8.941  0.00  0.00    +0.015 A 
ATOM     17  C6  UNL     1      57.474  14.553   7.801  0.00  0.00    +0.018 A 
BRANCH  14  18
ATOM     18  O5  UNL     1      55.462  10.921   7.485  0.00  0.00    -0.507 OA
ATOM     19  H10 UNL     1      55.662  10.504   6.630  0.00  0.00    +0.292 HD
ENDBRANCH  14  18
ENDBRANCH   1  17
BRANCH   8  20
ATOM     20  O3  UNL     1      62.139  18.299  11.652  0.00  0.00    -0.507 OA
ATOM     21  H8  UNL     1      63.002  17.912  11.426  0.00  0.00    +0.292 HD
ENDBRANCH   8  20
BRANCH   6  22
ATOM     22  O4  UNL     1      60.444  20.397   7.737  0.00  0.00    -0.506 OA
ATOM     23  H9  UNL     1      60.750  21.175   8.257  0.00  0.00    +0.292 HD
ENDBRANCH   6  22
TORSDOF 4
ENDMDL
MODEL 6
REMARK VINA RESULT:    -8.236      2.560      3.946
REMARK INTER + INTRA:          -9.703
REMARK INTER:                  -9.399
REMARK INTRA:                  -0.304
REMARK UNBOUND:                -0.263
REMARK  Name = data/mahkota_dewa_dn/results/docking/ligands/pdb/Apigenin.pdb
REMARK  4 active torsions:
REMARK  status: ('A' for Active; 'I' for Inactive)
REMARK    1  A    between atoms: C3_3  and  O5_20
REMARK    2  A    between atoms: C6_6  and  C7_7
REMARK    3  A    between atoms: C11_12  and  O4_19
REMARK    4  A    between atoms: C13_14  and  O3_18
REMARK                            x       y       z     vdW  Elec       q    Type
REMARK                         _______ _______ _______ _____ _____    ______ ____
ROOT
ATOM      1  C7  UNL     1      61.210  20.897   8.885  0.00  0.00    +0.139 A 
ATOM      2  C8  UNL     1      61.794  20.435  10.001  0.00  0.00    +0.098 A 
ATOM      3  C9  UNL     1      61.515  19.058  10.432  0.00  0.00    +0.197 A 
ATOM      4  O1  UNL     1      62.017  18.586  11.445  0.00  0.00    -0.287 OA
ATOM      5  C10 UNL     1      60.606  18.266   9.596  0.00  0.00    +0.105 A 
ATOM      6  C11 UNL     1      60.274  16.946   9.917  0.00  0.00    +0.135 A 
ATOM      7  C12 UNL     1      59.408  16.222   9.100  0.00  0.00    +0.091 A 
ATOM      8  C13 UNL     1      58.881  16.828   7.963  0.00  0.00    +0.124 A 
ATOM      9  C14 UNL     1      59.204  18.142   7.634  0.00  0.00    +0.092 A 
ATOM     10  C15 UNL     1      60.072  18.862   8.456  0.00  0.00    +0.146 A 
ATOM     11  O2  UNL     1      60.359  20.151   8.084  0.00  0.00    -0.454 OA
ENDROOT
BRANCH   1  17
ATOM     12  C1  UNL     1      60.472  22.929   7.642  0.00  0.00    +0.015 A 
ATOM     13  C2  UNL     1      60.680  24.231   7.173  0.00  0.00    +0.046 A 
ATOM     14  C3  UNL     1      61.876  24.877   7.461  0.00  0.00    +0.117 A 
ATOM     15  C4  UNL     1      62.861  24.247   8.211  0.00  0.00    +0.046 A 
ATOM     16  C5  UNL     1      62.651  22.948   8.678  0.00  0.00    +0.015 A 
ATOM     17  C6  UNL     1      61.457  22.267   8.393  0.00  0.00    +0.018 A 
BRANCH  14  18
ATOM     18  O5  UNL     1      62.122  26.144   7.027  0.00  0.00    -0.507 OA
ATOM     19  H10 UNL     1      62.686  26.594   7.679  0.00  0.00    +0.292 HD
ENDBRANCH  14  18
ENDBRANCH   1  17
BRANCH   8  20
ATOM     20  O3  UNL     1      58.030  16.160   7.134  0.00  0.00    -0.507 OA
ATOM     21  H8  UNL     1      57.237  16.705   6.994  0.00  0.00    +0.292 HD
ENDBRANCH   8  20
BRANCH   6  22
ATOM     22  O4  UNL     1      60.765  16.301  11.021  0.00  0.00    -0.506 OA
ATOM     23  H9  UNL     1      61.300  15.534  10.716  0.00  0.00    +0.292 HD
ENDBRANCH   6  22
TORSDOF 4
ENDMDL
MODEL 7
REMARK VINA RESULT:    -8.175      2.072      7.224
REMARK INTER + INTRA:          -9.632
REMARK INTER:                  -9.323
REMARK INTRA:                  -0.309
REMARK UNBOUND:                -0.263
REMARK  Name = data/mahkota_dewa_dn/results/docking/ligands/pdb/Apigenin.pdb
REMARK  4 active torsions:
REMARK  status: ('A' for Active; 'I' for Inactive)
REMARK    1  A    between atoms: C3_3  and  O5_20
REMARK    2  A    between atoms: C6_6  and  C7_7
REMARK    3  A    between atoms: C11_12  and  O4_19
REMARK    4  A    between atoms: C13_14  and  O3_18
REMARK                            x       y       z     vdW  Elec       q    Type
REMARK                         _______ _______ _______ _____ _____    ______ ____
ROOT
ATOM      1  C7  UNL     1      59.847  17.558   8.885  0.00  0.00    +0.139 A 
ATOM      2  C8  UNL     1      60.568  17.455  10.012  0.00  0.00    +0.098 A 
ATOM      3  C9  UNL     1      61.364  18.608  10.456  0.00  0.00    +0.197 A 
ATOM      4  O1  UNL     1      62.045  18.566  11.474  0.00  0.00    -0.287 OA
ATOM      5  C10 UNL     1      61.313  19.816   9.626  0.00  0.00    +0.105 A 
ATOM      6  C11 UNL     1      62.033  20.968   9.958  0.00  0.00    +0.135 A 
ATOM      7  C12 UNL     1      61.961  22.099   9.148  0.00  0.00    +0.091 A 
ATOM      8  C13 UNL     1      61.163  22.067   8.008  0.00  0.00    +0.124 A 
ATOM      9  C14 UNL     1      60.441  20.926   7.667  0.00  0.00    +0.092 A 
ATOM     10  C15 UNL     1      60.518  19.797   8.482  0.00  0.00    +0.146 A 
ATOM     11  O2  UNL     1      59.784  18.701   8.102  0.00  0.00    -0.454 OA
ENDROOT
BRANCH   1  17
ATOM     12  C1  UNL     1      58.652  15.402   9.262  0.00  0.00    +0.015 A 
ATOM     13  C2  UNL     1      57.859  14.338   8.818  0.00  0.00    +0.046 A 
ATOM     14  C3  UNL     1      57.423  14.316   7.499  0.00  0.00    +0.117 A 
ATOM     15  C4  UNL     1      57.764  15.338   6.621  0.00  0.00    +0.046 A 
ATOM     16  C5  UNL     1      58.555  16.399   7.066  0.00  0.00    +0.015 A 
ATOM     17  C6  UNL     1      59.018  16.441   8.391  0.00  0.00    +0.018 A 
BRANCH  14  18
ATOM     18  O5  UNL     1      56.649  13.302   7.022  0.00  0.00    -0.507 OA
ATOM     19  H10 UNL     1      56.862  13.161   6.084  0.00  0.00    +0.292 HD
ENDBRANCH  14  18
ENDBRANCH   1  17
BRANCH   8  20
ATOM     20  O3  UNL     1      61.060  23.149   7.185  0.00  0.00    -0.507 OA
ATOM     21  H8  UNL     1      60.143  23.470   7.201  0.00  0.00    +0.292 HD
ENDBRANCH   8  20
BRANCH   6  22
ATOM     22  O4  UNL     1      62.832  21.053  11.067  0.00  0.00    -0.506 OA
ATOM     23  H9  UNL     1      62.295  21.423  11.804  0.00  0.00    +0.292 HD
ENDBRANCH   6  22
TORSDOF 4
ENDMDL
MODEL 8
REMARK VINA RESULT:    -8.145      3.802      6.666
REMARK INTER + INTRA:          -9.599
REMARK INTER:                  -9.332
REMARK INTRA:                  -0.267
REMARK UNBOUND:                -0.263
REMARK  Name = data/mahkota_dewa_dn/results/docking/ligands/pdb/Apigenin.pdb
REMARK  4 active torsions:
REMARK  status: ('A' for Active; 'I' for Inactive)
REMARK    1  A    between atoms: C3_3  and  O5_20
REMARK    2  A    between atoms: C6_6  and  C7_7
REMARK    3  A    between atoms: C11_12  and  O4_19
REMARK    4  A    between atoms: C13_14  and  O3_18
REMARK                            x       y       z     vdW  Elec       q    Type
REMARK                         _______ _______ _______ _____ _____    ______ ____
ROOT
ATOM      1  C7  UNL     1      61.474  21.433   8.373  0.00  0.00    +0.139 A 
ATOM      2  C8  UNL     1      60.552  22.408   8.412  0.00  0.00    +0.098 A 
ATOM      3  C9  UNL     1      60.809  23.661   7.689  0.00  0.00    +0.197 A 
ATOM      4  O1  UNL     1      60.005  24.585   7.696  0.00  0.00    -0.287 OA
ATOM      5  C10 UNL     1      62.075  23.762   6.954  0.00  0.00    +0.105 A 
ATOM      6  C11 UNL     1      62.418  24.910   6.233  0.00  0.00    +0.135 A 
ATOM      7  C12 UNL     1      63.628  24.972   5.546  0.00  0.00    +0.091 A 
ATOM      8  C13 UNL     1      64.488  23.878   5.585  0.00  0.00    +0.124 A 
ATOM      9  C14 UNL     1      64.157  22.729   6.299  0.00  0.00    +0.092 A 
ATOM     10  C15 UNL     1      62.945  22.673   6.986  0.00  0.00    +0.146 A 
ATOM     11  O2  UNL     1      62.667  21.517   7.671  0.00  0.00    -0.454 OA
ENDROOT
BRANCH   1  17
ATOM     12  C1  UNL     1      60.482  19.147   8.478  0.00  0.00    +0.015 A 
ATOM     13  C2  UNL     1      60.285  17.918   9.115  0.00  0.00    +0.046 A 
ATOM     14  C3  UNL     1      60.884  17.683  10.347  0.00  0.00    +0.117 A 
ATOM     15  C4  UNL     1      61.678  18.653  10.946  0.00  0.00    +0.046 A 
ATOM     16  C5  UNL     1      61.874  19.880  10.309  0.00  0.00    +0.015 A 
ATOM     17  C6  UNL     1      61.272  20.147   9.069  0.00  0.00    +0.018 A 
BRANCH  14  18
ATOM     18  O5  UNL     1      60.721  16.501  11.004  0.00  0.00    -0.507 OA
ATOM     19  H10 UNL     1      59.843  16.144  10.792  0.00  0.00    +0.292 HD
ENDBRANCH  14  18
ENDBRANCH   1  17
BRANCH   8  20
ATOM     20  O3  UNL     1      65.682  23.892   4.928  0.00  0.00    -0.507 OA
ATOM     21  H8  UNL     1      66.357  24.280   5.512  0.00  0.00    +0.292 HD
ENDBRANCH   8  20
BRANCH   6  22
ATOM     22  O4  UNL     1      61.610  26.013   6.161  0.00  0.00    -0.506 OA
ATOM     23  H9  UNL     1      61.282  26.214   7.067  0.00  0.00    +0.292 HD
ENDBRANCH   6  22
TORSDOF 4
ENDMDL
MODEL 9
REMARK VINA RESULT:    -7.839      2.331      4.695
REMARK INTER + INTRA:          -9.248
REMARK INTER:                  -8.934
REMARK INTRA:                  -0.314
REMARK UNBOUND:                -0.263
REMARK  Name = data/mahkota_dewa_dn/results/docking/ligands/pdb/Apigenin.pdb
REMARK  4 active torsions:
REMARK  status: ('A' for Active; 'I' for Inactive)
REMARK    1  A    between atoms: C3_3  and  O5_20
REMARK    2  A    between atoms: C6_6  and  C7_7
REMARK    3  A    between atoms: C11_12  and  O4_19
REMARK    4  A    between atoms: C13_14  and  O3_18
REMARK                            x       y       z     vdW  Elec       q    Type
REMARK                         _______ _______ _______ _____ _____    ______ ____
ROOT
ATOM      1  C7  UNL     1      59.420  16.912   8.705  0.00  0.00    +0.139 A 
ATOM      2  C8  UNL     1      58.998  15.770   9.268  0.00  0.00    +0.098 A 
ATOM      3  C9  UNL     1      58.105  14.887   8.505  0.00  0.00    +0.197 A 
ATOM      4  O1  UNL     1      57.686  13.835   8.973  0.00  0.00    -0.287 OA
ATOM      5  C10 UNL     1      57.734  15.318   7.152  0.00  0.00    +0.105 A 
ATOM      6  C11 UNL     1      56.891  14.551   6.342  0.00  0.00    +0.135 A 
ATOM      7  C12 UNL     1      56.559  14.989   5.062  0.00  0.00    +0.091 A 
ATOM      8  C13 UNL     1      57.080  16.196   4.601  0.00  0.00    +0.124 A 
ATOM      9  C14 UNL     1      57.921  16.968   5.399  0.00  0.00    +0.092 A 
ATOM     10  C15 UNL     1      58.249  16.524   6.680  0.00  0.00    +0.146 A 
ATOM     11  O2  UNL     1      59.083  17.320   7.423  0.00  0.00    -0.454 OA
ENDROOT
BRANCH   1  17
ATOM     12  C1  UNL     1      60.626  19.090   8.855  0.00  0.00    +0.015 A 
ATOM     13  C2  UNL     1      61.474  19.987   9.514  0.00  0.00    +0.046 A 
ATOM     14  C3  UNL     1      62.020  19.633  10.742  0.00  0.00    +0.117 A 
ATOM     15  C4  UNL     1      61.730  18.404  11.320  0.00  0.00    +0.046 A 
ATOM     16  C5  UNL     1      60.883  17.510  10.661  0.00  0.00    +0.015 A 
ATOM     17  C6  UNL     1      60.326  17.837   9.415  0.00  0.00    +0.018 A 
BRANCH  14  18
ATOM     18  O5  UNL     1      62.850  20.473  11.420  0.00  0.00    -0.507 OA
ATOM     19  H10 UNL     1      63.755  20.122  11.375  0.00  0.00    +0.292 HD
ENDBRANCH  14  18
ENDBRANCH   1  17
BRANCH   8  20
ATOM     20  O3  UNL     1      56.784  16.666   3.356  0.00  0.00    -0.507 OA
ATOM     21  H8  UNL     1      56.966  17.620   3.330  0.00  0.00    +0.292 HD
ENDBRANCH   8  20
BRANCH   6  22
ATOM     22  O4  UNL     1      56.353  13.358   6.744  0.00  0.00    -0.506 OA
ATOM     23  H9  UNL     1      56.995  12.919   7.347  0.00  0.00    +0.292 HD
ENDBRANCH   6  22
TORSDOF 4
ENDMDL
