MODEL 1
REMARK VINA RESULT:    -8.714      0.000      0.000
REMARK INTER + INTRA:         -10.542
REMARK INTER:                 -10.242
REMARK INTRA:                  -0.300
REMARK UNBOUND:                -0.300
REMARK  Name = data/mahkota_dewa_dn/results/docking/ligands/pdb/Luteolin.pdb
REMARK  5 active torsions:
REMARK  status: ('A' for Active; 'I' for Inactive)
REMARK    1  A    between atoms: C3_3  and  O6_21
REMARK    2  A    between atoms: C4_4  and  O5_20
REMARK    3  A    between atoms: C6_6  and  C7_7
REMARK    4  A    between atoms: C11_12  and  O4_19
REMARK    5  A    between atoms: C13_14  and  O3_18
REMARK                            x       y       z     vdW  Elec       q    Type
REMARK                         _______ _______ _______ _____ _____    ______ ____
ROOT
ATOM      1  C7  UNL     1      58.243  15.790   7.992  0.00  0.00    +0.139 A 
ATOM      2  C8  UNL     1      58.086  16.731   7.049  0.00  0.00    +0.098 A 
ATOM      3  C9  UNL     1      58.824  17.996   7.176  0.00  0.00    +0.197 A 
ATOM      4  O1  UNL     1      58.708  18.894   6.348  0.00  0.00    -0.287 OA
ATOM      5  C10 UNL     1      59.704  18.143   8.339  0.00  0.00    +0.105 A 
ATOM      6  C11 UNL     1      60.452  19.307   8.554  0.00  0.00    +0.135 A 
ATOM      7  C12 UNL     1      61.279  19.414   9.669  0.00  0.00    +0.091 A 
ATOM      8  C13 UNL     1      61.351  18.350  10.565  0.00  0.00    +0.124 A 
ATOM      9  C14 UNL     1      60.612  17.188  10.362  0.00  0.00    +0.092 A 
ATOM     10  C15 UNL     1      59.785  17.086   9.243  0.00  0.00    +0.146 A 
ATOM     11  O2  UNL     1      59.079  15.919   9.091  0.00  0.00    -0.454 OA
ENDROOT
BRANCH   1  17
ATOM     12  C1  UNL     1      57.477  13.761   6.719  0.00  0.00    +0.015 A 
ATOM     13  C2  UNL     1      56.799  12.538   6.655  0.00  0.00    +0.050 A 
ATOM     14  C3  UNL     1      56.176  12.050   7.795  0.00  0.00    +0.158 A 
ATOM     15  C4  UNL     1      56.225  12.772   8.983  0.00  0.00    +0.159 A 
ATOM     16  C5  UNL     1      56.894  13.987   9.055  0.00  0.00    +0.060 A 
ATOM     17  C6  UNL     1      57.539  14.495   7.918  0.00  0.00    +0.021 A 
BRANCH  15  18
ATOM     18  O5  UNL     1      55.607  12.286  10.102  0.00  0.00    -0.503 OA
ATOM     19  H9  UNL     1      55.694  11.315  10.027  0.00  0.00    +0.292 HD
ENDBRANCH  15  18
BRANCH  14  20
ATOM     20  O6  UNL     1      55.499  10.863   7.799  0.00  0.00    -0.503 OA
ATOM     21  H10 UNL     1      55.408  10.560   6.879  0.00  0.00    +0.292 HD
ENDBRANCH  14  20
ENDBRANCH   1  17
BRANCH   8  22
ATOM     22  O3  UNL     1      62.146  18.408  11.671  0.00  0.00    -0.507 OA
ATOM     23  H7  UNL     1      61.593  18.287  12.461  0.00  0.00    +0.292 HD
ENDBRANCH   8  22
BRANCH   6  24
ATOM     24  O4  UNL     1      60.418  20.381   7.706  0.00  0.00    -0.506 OA
ATOM     25  H8  UNL     1      59.475  20.599   7.526  0.00  0.00    +0.292 HD
ENDBRANCH   6  24
TORSDOF 5
ENDMDL
MODEL 2
REMARK VINA RESULT:    -8.586      2.720      8.164
REMARK INTER + INTRA:         -10.391
REMARK INTER:                 -10.123
REMARK INTRA:                  -0.269
REMARK UNBOUND:                -0.300
REMARK  Name = data/mahkota_dewa_dn/results/docking/ligands/pdb/Luteolin.pdb
REMARK  5 active torsions:
REMARK  status: ('A' for Active; 'I' for Inactive)
REMARK    1  A    between atoms: C3_3  and  O6_21
REMARK    2  A    between atoms: C4_4  and  O5_20
REMARK    3  A    between atoms: C6_6  and  C7_7
REMARK    4  A    between atoms: C11_12  and  O4_19
REMARK    5  A    between atoms: C13_14  and  O3_18
REMARK                            x       y       z     vdW  Elec       q    Type
REMARK                         _______ _______ _______ _____ _____    ______ ____
ROOT
ATOM      1  C7  UNL     1      61.645  19.968   9.818  0.00  0.00    +0.139 A 
ATOM      2  C8  UNL     1      61.129  20.538   8.720  0.00  0.00    +0.098 A 
ATOM      3  C9  UNL     1      60.174  19.775   7.903  0.00  0.00    +0.197 A 
ATOM      4  O1  UNL     1      59.681  20.245   6.883  0.00  0.00    -0.287 OA
ATOM      5  C10 UNL     1      59.835  18.423   8.358  0.00  0.00    +0.105 A 
ATOM      6  C11 UNL     1      58.936  17.613   7.655  0.00  0.00    +0.135 A 
ATOM      7  C12 UNL     1      58.636  16.333   8.116  0.00  0.00    +0.091 A 
ATOM      8  C13 UNL     1      59.242  15.873   9.281  0.00  0.00    +0.124 A 
ATOM      9  C14 UNL     1      60.138  16.669   9.989  0.00  0.00    +0.092 A 
ATOM     10  C15 UNL     1      60.435  17.950   9.524  0.00  0.00    +0.146 A 
ATOM     11  O2  UNL     1      61.324  18.693  10.259  0.00  0.00    -0.454 OA
ENDROOT
BRANCH   1  17
ATOM     12  C1  UNL     1      62.162  21.472  11.767  0.00  0.00    +0.015 A 
ATOM     13  C2  UNL     1      63.075  22.156  12.578  0.00  0.00    +0.050 A 
ATOM     14  C3  UNL     1      64.432  22.052  12.306  0.00  0.00    +0.158 A 
ATOM     15  C4  UNL     1      64.874  21.281  11.235  0.00  0.00    +0.159 A 
ATOM     16  C5  UNL     1      63.975  20.602  10.423  0.00  0.00    +0.060 A 
ATOM     17  C6  UNL     1      62.600  20.683  10.686  0.00  0.00    +0.021 A 
BRANCH  15  18
ATOM     18  O5  UNL     1      66.212  21.186  10.972  0.00  0.00    -0.503 OA
ATOM     19  H9  UNL     1      66.351  21.764  10.196  0.00  0.00    +0.292 HD
ENDBRANCH  15  18
BRANCH  14  20
ATOM     20  O6  UNL     1      65.373  22.693  13.061  0.00  0.00    -0.503 OA
ATOM     21  H10 UNL     1      66.250  22.357  12.805  0.00  0.00    +0.292 HD
ENDBRANCH  14  20
ENDBRANCH   1  17
BRANCH   8  22
ATOM     22  O3  UNL     1      58.980  14.627   9.771  0.00  0.00    -0.507 OA
ATOM     23  H7  UNL     1      58.388  14.165   9.154  0.00  0.00    +0.292 HD
ENDBRANCH   8  22
BRANCH   6  24
ATOM     24  O4  UNL     1      58.313  18.016   6.505  0.00  0.00    -0.506 OA
ATOM     25  H8  UNL     1      57.864  18.874   6.684  0.00  0.00    +0.292 HD
ENDBRANCH   6  24
TORSDOF 5
ENDMDL
MODEL 3
REMARK VINA RESULT:    -8.478      2.667      4.567
REMARK INTER + INTRA:         -10.264
REMARK INTER:                  -9.935
REMARK INTRA:                  -0.329
REMARK UNBOUND:                -0.300
REMARK  Name = data/mahkota_dewa_dn/results/docking/ligands/pdb/Luteolin.pdb
REMARK  5 active torsions:
REMARK  status: ('A' for Active; 'I' for Inactive)
REMARK    1  A    between atoms: C3_3  and  O6_21
REMARK    2  A    between atoms: C4_4  and  O5_20
REMARK    3  A    between atoms: C6_6  and  C7_7
REMARK    4  A    between atoms: C11_12  and  O4_19
REMARK    5  A    between atoms: C13_14  and  O3_18
REMARK                            x       y       z     vdW  Elec       q    Type
REMARK                         _______ _______ _______ _____ _____    ______ ____
ROOT
ATOM      1  C7  UNL     1      60.552  19.645   8.741  0.00  0.00    +0.139 A 
ATOM      2  C8  UNL     1      60.507  20.638   7.840  0.00  0.00    +0.098 A 
ATOM      3  C9  UNL     1      61.221  21.891   8.125  0.00  0.00    +0.197 A 
ATOM      4  O1  UNL     1      61.202  22.834   7.341  0.00  0.00    -0.287 OA
ATOM      5  C10 UNL     1      61.956  21.969   9.391  0.00  0.00    +0.105 A 
ATOM      6  C11 UNL     1      62.670  23.115   9.758  0.00  0.00    +0.135 A 
ATOM      7  C12 UNL     1      63.358  23.156  10.968  0.00  0.00    +0.091 A 
ATOM      8  C13 UNL     1      63.326  22.043  11.805  0.00  0.00    +0.124 A 
ATOM      9  C14 UNL     1      62.619  20.897  11.450  0.00  0.00    +0.092 A 
ATOM     10  C15 UNL     1      61.931  20.862  10.238  0.00  0.00    +0.146 A 
ATOM     11  O2  UNL     1      61.251  19.709   9.937  0.00  0.00    -0.454 OA
ENDROOT
BRANCH   1  17
ATOM     12  C1  UNL     1      59.053  18.153   7.380  0.00  0.00    +0.015 A 
ATOM     13  C2  UNL     1      58.396  16.934   7.176  0.00  0.00    +0.050 A 
ATOM     14  C3  UNL     1      58.551  15.918   8.108  0.00  0.00    +0.158 A 
ATOM     15  C4  UNL     1      59.346  16.115   9.233  0.00  0.00    +0.159 A 
ATOM     16  C5  UNL     1      59.998  17.322   9.445  0.00  0.00    +0.060 A 
ATOM     17  C6  UNL     1      59.865  18.359   8.511  0.00  0.00    +0.021 A 
BRANCH  15  18
ATOM     18  O5  UNL     1      59.491  15.110  10.148  0.00  0.00    -0.503 OA
ATOM     19  H9  UNL     1      60.425  15.170  10.432  0.00  0.00    +0.292 HD
ENDBRANCH  15  18
BRANCH  14  20
ATOM     20  O6  UNL     1      57.938  14.705   7.966  0.00  0.00    -0.503 OA
ATOM     21  H10 UNL     1      57.508  14.479   8.809  0.00  0.00    +0.292 HD
ENDBRANCH  14  20
ENDBRANCH   1  17
BRANCH   8  22
ATOM     22  O3  UNL     1      63.984  22.036  12.999  0.00  0.00    -0.507 OA
ATOM     23  H7  UNL     1      64.903  22.318  12.853  0.00  0.00    +0.292 HD
ENDBRANCH   8  22
BRANCH   6  24
ATOM     24  O4  UNL     1      62.735  24.235   8.974  0.00  0.00    -0.506 OA
ATOM     25  H8  UNL     1      63.500  24.777   9.276  0.00  0.00    +0.292 HD
ENDBRANCH   6  24
TORSDOF 5
ENDMDL
MODEL 4
REMARK VINA RESULT:    -8.446      3.234      8.697
REMARK INTER + INTRA:         -10.228
REMARK INTER:                  -9.939
REMARK INTRA:                  -0.289
REMARK UNBOUND:                -0.300
REMARK  Name = data/mahkota_dewa_dn/results/docking/ligands/pdb/Luteolin.pdb
REMARK  5 active torsions:
REMARK  status: ('A' for Active; 'I' for Inactive)
REMARK    1  A    between atoms: C3_3  and  O6_21
REMARK    2  A    between atoms: C4_4  and  O5_20
REMARK    3  A    between atoms: C6_6  and  C7_7
REMARK    4  A    between atoms: C11_12  and  O4_19
REMARK    5  A    between atoms: C13_14  and  O3_18
REMARK                            x       y       z     vdW  Elec       q    Type
REMARK                         _______ _______ _______ _____ _____    ______ ____
ROOT
ATOM      1  C7  UNL     1      61.205  20.899   8.807  0.00  0.00    +0.139 A 
ATOM      2  C8  UNL     1      61.786  20.458   9.932  0.00  0.00    +0.098 A 
ATOM      3  C9  UNL     1      61.501  19.092  10.393  0.00  0.00    +0.197 A 
ATOM      4  O1  UNL     1      61.998  18.644  11.421  0.00  0.00    -0.287 OA
ATOM      5  C10 UNL     1      60.592  18.285   9.573  0.00  0.00    +0.105 A 
ATOM      6  C11 UNL     1      60.256  16.972   9.921  0.00  0.00    +0.135 A 
ATOM      7  C12 UNL     1      59.390  16.233   9.119  0.00  0.00    +0.091 A 
ATOM      8  C13 UNL     1      58.865  16.817   7.969  0.00  0.00    +0.124 A 
ATOM      9  C14 UNL     1      59.193  18.123   7.612  0.00  0.00    +0.092 A 
ATOM     10  C15 UNL     1      60.060  18.858   8.420  0.00  0.00    +0.146 A 
ATOM     11  O2  UNL     1      60.350  20.140   8.022  0.00  0.00    -0.454 OA
ENDROOT
BRANCH   1  17
ATOM     12  C1  UNL     1      60.429  23.019   7.697  0.00  0.00    +0.015 A 
ATOM     13  C2  UNL     1      60.679  24.301   7.195  0.00  0.00    +0.050 A 
ATOM     14  C3  UNL     1      61.962  24.822   7.278  0.00  0.00    +0.158 A 
ATOM     15  C4  UNL     1      62.986  24.073   7.850  0.00  0.00    +0.159 A 
ATOM     16  C5  UNL     1      62.748  22.799   8.349  0.00  0.00    +0.060 A 
ATOM     17  C6  UNL     1      61.457  22.256   8.285  0.00  0.00    +0.021 A 
BRANCH  15  18
ATOM     18  O5  UNL     1      64.248  24.592   7.927  0.00  0.00    -0.503 OA
ATOM     19  H9  UNL     1      64.361  24.825   8.870  0.00  0.00    +0.292 HD
ENDBRANCH  15  18
BRANCH  14  20
ATOM     20  O6  UNL     1      62.271  26.067   6.808  0.00  0.00    -0.503 OA
ATOM     21  H10 UNL     1      62.335  26.673   7.567  0.00  0.00    +0.292 HD
ENDBRANCH  14  20
ENDBRANCH   1  17
BRANCH   8  22
ATOM     22  O3  UNL     1      58.014  16.134   7.153  0.00  0.00    -0.507 OA
ATOM     23  H7  UNL     1      57.271  16.716   6.917  0.00  0.00    +0.292 HD
ENDBRANCH   8  22
BRANCH   6  24
ATOM     24  O4  UNL     1      60.743  16.351  11.039  0.00  0.00    -0.506 OA
ATOM     25  H8  UNL     1      61.033  17.045  11.674  0.00  0.00    +0.292 HD
ENDBRANCH   6  24
TORSDOF 5
ENDMDL
MODEL 5
REMARK VINA RESULT:    -8.371      4.185      7.145
REMARK INTER + INTRA:         -10.139
REMARK INTER:                  -9.863
REMARK INTRA:                  -0.275
REMARK UNBOUND:                -0.300
REMARK  Name = data/mahkota_dewa_dn/results/docking/ligands/pdb/Luteolin.pdb
REMARK  5 active torsions:
REMARK  status: ('A' for Active; 'I' for Inactive)
REMARK    1  A    between atoms: C3_3  and  O6_21
REMARK    2  A    between atoms: C4_4  and  O5_20
REMARK    3  A    between atoms: C6_6  and  C7_7
REMARK    4  A    between atoms: C11_12  and  O4_19
REMARK    5  A    between atoms: C13_14  and  O3_18
REMARK                            x       y       z     vdW  Elec       q    Type
REMARK                         _______ _______ _______ _____ _____    ______ ____
ROOT
ATOM      1  C7  UNL     1      61.280  21.378   8.202  0.00  0.00    +0.139 A 
ATOM      2  C8  UNL     1      60.367  22.355   8.293  0.00  0.00    +0.098 A 
ATOM      3  C9  UNL     1      60.626  23.637   7.622  0.00  0.00    +0.197 A 
ATOM      4  O1  UNL     1      59.829  24.567   7.682  0.00  0.00    -0.287 OA
ATOM      5  C10 UNL     1      61.883  23.760   6.878  0.00  0.00    +0.105 A 
ATOM      6  C11 UNL     1      62.227  24.937   6.202  0.00  0.00    +0.135 A 
ATOM      7  C12 UNL     1      63.429  25.020   5.504  0.00  0.00    +0.091 A 
ATOM      8  C13 UNL     1      64.282  23.919   5.488  0.00  0.00    +0.124 A 
ATOM      9  C14 UNL     1      63.951  22.743   6.156  0.00  0.00    +0.092 A 
ATOM     10  C15 UNL     1      62.746  22.666   6.854  0.00  0.00    +0.146 A 
ATOM     11  O2  UNL     1      62.468  21.484   7.494  0.00  0.00    -0.454 OA
ENDROOT
BRANCH   1  17
ATOM     12  C1  UNL     1      60.253  19.083   8.261  0.00  0.00    +0.015 A 
ATOM     13  C2  UNL     1      60.056  17.844   8.882  0.00  0.00    +0.050 A 
ATOM     14  C3  UNL     1      60.684  17.587  10.093  0.00  0.00    +0.158 A 
ATOM     15  C4  UNL     1      61.494  18.554  10.680  0.00  0.00    +0.159 A 
ATOM     16  C5  UNL     1      61.692  19.787  10.073  0.00  0.00    +0.060 A 
ATOM     17  C6  UNL     1      61.076  20.065   8.844  0.00  0.00    +0.021 A 
BRANCH  15  18
ATOM     18  O5  UNL     1      62.107  18.294  11.874  0.00  0.00    -0.503 OA
ATOM     19  H9  UNL     1      63.059  18.248  11.656  0.00  0.00    +0.292 HD
ENDBRANCH  15  18
BRANCH  14  20
ATOM     20  O6  UNL     1      60.534  16.398  10.748  0.00  0.00    -0.503 OA
ATOM     21  H10 UNL     1      61.412  15.989  10.844  0.00  0.00    +0.292 HD
ENDBRANCH  14  20
ENDBRANCH   1  17
BRANCH   8  22
ATOM     22  O3  UNL     1      65.469  23.953   4.818  0.00  0.00    -0.507 OA
ATOM     23  H7  UNL     1      66.183  23.714   5.434  0.00  0.00    +0.292 HD
ENDBRANCH   8  22
BRANCH   6  24
ATOM     24  O4  UNL     1      61.426  26.047   6.186  0.00  0.00    -0.506 OA
ATOM     25  H8  UNL     1      60.563  25.809   6.597  0.00  0.00    +0.292 HD
ENDBRANCH   6  24
TORSDOF 5
ENDMDL
MODEL 6
REMARK VINA RESULT:    -8.292      4.200      6.991
REMARK INTER + INTRA:         -10.047
REMARK INTER:                  -9.724
REMARK INTRA:                  -0.322
REMARK UNBOUND:                -0.300
REMARK  Name = data/mahkota_dewa_dn/results/docking/ligands/pdb/Luteolin.pdb
REMARK  5 active torsions:
REMARK  status: ('A' for Active; 'I' for Inactive)
REMARK    1  A    between atoms: C3_3  and  O6_21
REMARK    2  A    between atoms: C4_4  and  O5_20
REMARK    3  A    between atoms: C6_6  and  C7_7
REMARK    4  A    between atoms: C11_12  and  O4_19
REMARK    5  A    between atoms: C13_14  and  O3_18
REMARK                            x       y       z     vdW  Elec       q    Type
REMARK                         _______ _______ _______ _____ _____    ______ ____
ROOT
ATOM      1  C7  UNL     1      61.295  21.356   8.293  0.00  0.00    +0.139 A 
ATOM      2  C8  UNL     1      61.114  21.561   6.981  0.00  0.00    +0.098 A 
ATOM      3  C9  UNL     1      61.345  22.905   6.431  0.00  0.00    +0.197 A 
ATOM      4  O1  UNL     1      61.183  23.149   5.240  0.00  0.00    -0.287 OA
ATOM      5  C10 UNL     1      61.774  23.946   7.370  0.00  0.00    +0.105 A 
ATOM      6  C11 UNL     1      62.022  25.258   6.950  0.00  0.00    +0.135 A 
ATOM      7  C12 UNL     1      62.429  26.223   7.868  0.00  0.00    +0.091 A 
ATOM      8  C13 UNL     1      62.585  25.866   9.205  0.00  0.00    +0.124 A 
ATOM      9  C14 UNL     1      62.341  24.564   9.634  0.00  0.00    +0.092 A 
ATOM     10  C15 UNL     1      61.933  23.601   8.710  0.00  0.00    +0.146 A 
ATOM     11  O2  UNL     1      61.707  22.334   9.186  0.00  0.00    -0.454 OA
ENDROOT
BRANCH   1  17
ATOM     12  C1  UNL     1      60.275  19.057   8.293  0.00  0.00    +0.015 A 
ATOM     13  C2  UNL     1      60.078  17.804   8.886  0.00  0.00    +0.050 A 
ATOM     14  C3  UNL     1      60.694  17.524  10.098  0.00  0.00    +0.158 A 
ATOM     15  C4  UNL     1      61.494  18.481  10.714  0.00  0.00    +0.159 A 
ATOM     16  C5  UNL     1      61.693  19.727  10.134  0.00  0.00    +0.060 A 
ATOM     17  C6  UNL     1      61.089  20.029   8.905  0.00  0.00    +0.021 A 
BRANCH  15  18
ATOM     18  O5  UNL     1      62.095  18.199  11.908  0.00  0.00    -0.503 OA
ATOM     19  H9  UNL     1      62.853  18.816  11.953  0.00  0.00    +0.292 HD
ENDBRANCH  15  18
BRANCH  14  20
ATOM     20  O6  UNL     1      60.542  16.320  10.727  0.00  0.00    -0.503 OA
ATOM     21  H10 UNL     1      60.291  16.489  11.652  0.00  0.00    +0.292 HD
ENDBRANCH  14  20
ENDBRANCH   1  17
BRANCH   8  22
ATOM     22  O3  UNL     1      62.981  26.775  10.140  0.00  0.00    -0.507 OA
ATOM     23  H7  UNL     1      63.911  27.006   9.979  0.00  0.00    +0.292 HD
ENDBRANCH   8  22
BRANCH   6  24
ATOM     24  O4  UNL     1      61.884  25.663   5.650  0.00  0.00    -0.506 OA
ATOM     25  H8  UNL     1      61.388  24.965   5.163  0.00  0.00    +0.292 HD
ENDBRANCH   6  24
TORSDOF 5
ENDMDL
MODEL 7
REMARK VINA RESULT:    -8.177      2.548      8.189
REMARK INTER + INTRA:          -9.911
REMARK INTER:                  -9.621
REMARK INTRA:                  -0.290
REMARK UNBOUND:                -0.300
REMARK  Name = data/mahkota_dewa_dn/results/docking/ligands/pdb/Luteolin.pdb
REMARK  5 active torsions:
REMARK  status: ('A' for Active; 'I' for Inactive)
REMARK    1  A    between atoms: C3_3  and  O6_21
REMARK    2  A    between atoms: C4_4  and  O5_20
REMARK    3  A    between atoms: C6_6  and  C7_7
REMARK    4  A    between atoms: C11_12  and  O4_19
REMARK    5  A    between atoms: C13_14  and  O3_18
REMARK                            x       y       z     vdW  Elec       q    Type
REMARK                         _______ _______ _______ _____ _____    ______ ____
ROOT
ATOM      1  C7  UNL     1      60.872  19.488   8.890  0.00  0.00    +0.139 A 
ATOM      2  C8  UNL     1      61.138  18.552   9.813  0.00  0.00    +0.098 A 
ATOM      3  C9  UNL     1      60.395  17.284   9.776  0.00  0.00    +0.197 A 
ATOM      4  O1  UNL     1      60.591  16.400  10.603  0.00  0.00    -0.287 OA
ATOM      5  C10 UNL     1      59.404  17.120   8.708  0.00  0.00    +0.105 A 
ATOM      6  C11 UNL     1      58.645  15.951   8.582  0.00  0.00    +0.135 A 
ATOM      7  C12 UNL     1      57.712  15.828   7.555  0.00  0.00    +0.091 A 
ATOM      8  C13 UNL     1      57.547  16.881   6.658  0.00  0.00    +0.124 A 
ATOM      9  C14 UNL     1      58.297  18.048   6.774  0.00  0.00    +0.092 A 
ATOM     10  C15 UNL     1      59.229  18.166   7.805  0.00  0.00    +0.146 A 
ATOM     11  O2  UNL     1      59.942  19.337   7.873  0.00  0.00    -0.454 OA
ENDROOT
BRANCH   1  17
ATOM     12  C1  UNL     1      60.934  21.973   8.512  0.00  0.00    +0.015 A 
ATOM     13  C2  UNL     1      61.624  23.191   8.482  0.00  0.00    +0.050 A 
ATOM     14  C3  UNL     1      62.974  23.213   8.805  0.00  0.00    +0.158 A 
ATOM     15  C4  UNL     1      63.630  22.035   9.149  0.00  0.00    +0.159 A 
ATOM     16  C5  UNL     1      62.954  20.822   9.179  0.00  0.00    +0.060 A 
ATOM     17  C6  UNL     1      61.588  20.778   8.867  0.00  0.00    +0.021 A 
BRANCH  15  18
ATOM     18  O5  UNL     1      64.960  22.064   9.463  0.00  0.00    -0.503 OA
ATOM     19  H9  UNL     1      65.389  21.536   8.762  0.00  0.00    +0.292 HD
ENDBRANCH  15  18
BRANCH  14  20
ATOM     20  O6  UNL     1      63.702  24.369   8.795  0.00  0.00    -0.503 OA
ATOM     21  H10 UNL     1      64.262  24.370   7.999  0.00  0.00    +0.292 HD
ENDBRANCH  14  20
ENDBRANCH   1  17
BRANCH   8  22
ATOM     22  O3  UNL     1      56.646  16.807   5.637  0.00  0.00    -0.507 OA
ATOM     23  H7  UNL     1      56.428  17.709   5.346  0.00  0.00    +0.292 HD
ENDBRANCH   8  22
BRANCH   6  24
ATOM     24  O4  UNL     1      58.767  14.887   9.434  0.00  0.00    -0.506 OA
ATOM     25  H8  UNL     1      59.727  14.716   9.574  0.00  0.00    +0.292 HD
ENDBRANCH   6  24
TORSDOF 5
ENDMDL
MODEL 8
REMARK VINA RESULT:    -8.126      4.005      7.054
REMARK INTER + INTRA:          -9.851
REMARK INTER:                  -9.527
REMARK INTRA:                  -0.324
REMARK UNBOUND:                -0.300
REMARK  Name = data/mahkota_dewa_dn/results/docking/ligands/pdb/Luteolin.pdb
REMARK  5 active torsions:
REMARK  status: ('A' for Active; 'I' for Inactive)
REMARK    1  A    between atoms: C3_3  and  O6_21
REMARK    2  A    between atoms: C4_4  and  O5_20
REMARK    3  A    between atoms: C6_6  and  C7_7
REMARK    4  A    between atoms: C11_12  and  O4_19
REMARK    5  A    between atoms: C13_14  and  O3_18
REMARK                            x       y       z     vdW  Elec       q    Type
REMARK                         _______ _______ _______ _____ _____    ______ ____
ROOT
ATOM      1  C7  UNL     1      61.641  21.136   9.276  0.00  0.00    +0.139 A 
ATOM      2  C8  UNL     1      62.052  21.995  10.221  0.00  0.00    +0.098 A 
ATOM      3  C9  UNL     1      62.396  23.370   9.832  0.00  0.00    +0.197 A 
ATOM      4  O1  UNL     1      62.788  24.191  10.655  0.00  0.00    -0.287 OA
ATOM      5  C10 UNL     1      62.256  23.720   8.415  0.00  0.00    +0.105 A 
ATOM      6  C11 UNL     1      62.556  25.002   7.941  0.00  0.00    +0.135 A 
ATOM      7  C12 UNL     1      62.411  25.301   6.588  0.00  0.00    +0.091 A 
ATOM      8  C13 UNL     1      61.965  24.310   5.718  0.00  0.00    +0.124 A 
ATOM      9  C14 UNL     1      61.663  23.031   6.179  0.00  0.00    +0.092 A 
ATOM     10  C15 UNL     1      61.811  22.737   7.534  0.00  0.00    +0.146 A 
ATOM     11  O2  UNL     1      61.499  21.462   7.935  0.00  0.00    -0.454 OA
ENDROOT
BRANCH   1  17
ATOM     12  C1  UNL     1      61.699  19.132  10.794  0.00  0.00    +0.015 A 
ATOM     13  C2  UNL     1      61.353  17.808  11.090  0.00  0.00    +0.050 A 
ATOM     14  C3  UNL     1      60.578  17.094  10.187  0.00  0.00    +0.158 A 
ATOM     15  C4  UNL     1      60.157  17.689   9.002  0.00  0.00    +0.159 A 
ATOM     16  C5  UNL     1      60.498  19.000   8.699  0.00  0.00    +0.060 A 
ATOM     17  C6  UNL     1      61.272  19.745   9.601  0.00  0.00    +0.021 A 
BRANCH  15  18
ATOM     18  O5  UNL     1      59.395  16.978   8.117  0.00  0.00    -0.503 OA
ATOM     19  H9  UNL     1      59.167  16.156   8.594  0.00  0.00    +0.292 HD
ENDBRANCH  15  18
BRANCH  14  20
ATOM     20  O6  UNL     1      60.205  15.800  10.418  0.00  0.00    -0.503 OA
ATOM     21  H10 UNL     1      60.795  15.429  11.097  0.00  0.00    +0.292 HD
ENDBRANCH  14  20
ENDBRANCH   1  17
BRANCH   8  22
ATOM     22  O3  UNL     1      61.808  24.555   4.386  0.00  0.00    -0.507 OA
ATOM     23  H7  UNL     1      61.959  23.729   3.895  0.00  0.00    +0.292 HD
ENDBRANCH   8  22
BRANCH   6  24
ATOM     24  O4  UNL     1      62.998  26.012   8.752  0.00  0.00    -0.506 OA
ATOM     25  H8  UNL     1      63.515  25.610   9.487  0.00  0.00    +0.292 HD
ENDBRANCH   6  24
TORSDOF 5
ENDMDL
MODEL 9
REMARK VINA RESULT:    -8.027      1.863      3.934
REMARK INTER + INTRA:          -9.735
REMARK INTER:                  -9.412
REMARK INTRA:                  -0.323
REMARK UNBOUND:                -0.300
REMARK  Name = data/mahkota_dewa_dn/results/docking/ligands/pdb/Luteolin.pdb
REMARK  5 active torsions:
REMARK  status: ('A' for Active; 'I' for Inactive)
REMARK    1  A    between atoms: C3_3  and  O6_21
REMARK    2  A    between atoms: C4_4  and  O5_20
REMARK    3  A    between atoms: C6_6  and  C7_7
REMARK    4  A    between atoms: C11_12  and  O4_19
REMARK    5  A    between atoms: C13_14  and  O3_18
REMARK                            x       y       z     vdW  Elec       q    Type
REMARK                         _______ _______ _______ _____ _____    ______ ____
ROOT
ATOM      1  C7  UNL     1      59.839  17.558   8.888  0.00  0.00    +0.139 A 
ATOM      2  C8  UNL     1      60.550  17.439  10.018  0.00  0.00    +0.098 A 
ATOM      3  C9  UNL     1      61.351  18.582  10.479  0.00  0.00    +0.197 A 
ATOM      4  O1  UNL     1      62.027  18.523  11.500  0.00  0.00    -0.287 OA
ATOM      5  C10 UNL     1      61.311  19.799   9.663  0.00  0.00    +0.105 A 
ATOM      6  C11 UNL     1      62.035  20.944  10.014  0.00  0.00    +0.135 A 
ATOM      7  C12 UNL     1      61.974  22.085   9.216  0.00  0.00    +0.091 A 
ATOM      8  C13 UNL     1      61.185  22.069   8.070  0.00  0.00    +0.124 A 
ATOM      9  C14 UNL     1      60.459  20.936   7.711  0.00  0.00    +0.092 A 
ATOM     10  C15 UNL     1      60.524  19.797   8.513  0.00  0.00    +0.146 A 
ATOM     11  O2  UNL     1      59.790  18.708   8.114  0.00  0.00    -0.454 OA
ENDROOT
BRANCH   1  17
ATOM     12  C1  UNL     1      58.629  15.375   9.201  0.00  0.00    +0.015 A 
ATOM     13  C2  UNL     1      57.849  14.324   8.705  0.00  0.00    +0.050 A 
ATOM     14  C3  UNL     1      57.446  14.349   7.376  0.00  0.00    +0.158 A 
ATOM     15  C4  UNL     1      57.821  15.405   6.551  0.00  0.00    +0.159 A 
ATOM     16  C5  UNL     1      58.598  16.450   7.035  0.00  0.00    +0.060 A 
ATOM     17  C6  UNL     1      59.007  16.452   8.376  0.00  0.00    +0.021 A 
BRANCH  15  18
ATOM     18  O5  UNL     1      57.423  15.422   5.244  0.00  0.00    -0.503 OA
ATOM     19  H9  UNL     1      57.483  16.361   4.981  0.00  0.00    +0.292 HD
ENDBRANCH  15  18
BRANCH  14  20
ATOM     20  O6  UNL     1      56.683  13.356   6.832  0.00  0.00    -0.503 OA
ATOM     21  H10 UNL     1      57.104  12.502   7.033  0.00  0.00    +0.292 HD
ENDBRANCH  14  20
ENDBRANCH   1  17
BRANCH   8  22
ATOM     22  O3  UNL     1      61.093  23.161   7.258  0.00  0.00    -0.507 OA
ATOM     23  H7  UNL     1      61.162  23.963   7.802  0.00  0.00    +0.292 HD
ENDBRANCH   8  22
BRANCH   6  24
ATOM     24  O4  UNL     1      62.826  21.013  11.129  0.00  0.00    -0.506 OA
ATOM     25  H8  UNL     1      62.262  20.832  11.916  0.00  0.00    +0.292 HD
ENDBRANCH   6  24
TORSDOF 5
ENDMDL
