MODEL 1
REMARK VINA RESULT:    -5.943      0.000      0.000
REMARK INTER + INTRA:          -7.042
REMARK INTER:                  -6.986
REMARK INTRA:                  -0.056
REMARK UNBOUND:                -0.056
REMARK  Name = data/mahkota_dewa_dn/results/docking/ligands/pdb/Gallic_acid.pdb
REMARK  5 active torsions:
REMARK  status: ('A' for Active; 'I' for Inactive)
REMARK    1  A    between atoms: C2_2  and  C7_10
REMARK    2  A    between atoms: C4_4  and  O3_9
REMARK    3  A    between atoms: C5_5  and  O2_8
REMARK    4  A    between atoms: C6_6  and  O1_7
REMARK    5  A    between atoms: C7_10  and  O5_12
REMARK                            x       y       z     vdW  Elec       q    Type
REMARK                         _______ _______ _______ _____ _____    ______ ____
ROOT
ATOM      1  C1  UNL     1      59.851  17.244   8.890  0.00  0.00    +0.064 A 
ATOM      2  C2  UNL     1      59.794  18.401   8.095  0.00  0.00    +0.066 A 
ATOM      3  C3  UNL     1      60.496  19.555   8.473  0.00  0.00    +0.064 A 
ATOM      4  C4  UNL     1      61.246  19.538   9.644  0.00  0.00    +0.163 A 
ATOM      5  C5  UNL     1      61.303  18.390  10.435  0.00  0.00    +0.201 A 
ATOM      6  C6  UNL     1      60.606  17.244  10.060  0.00  0.00    +0.163 A 
ENDROOT
BRANCH   6   7
ATOM      7  O1  UNL     1      60.672  16.129  10.845  0.00  0.00    -0.503 OA
ATOM      8  H3  UNL     1      59.780  15.770  10.975  0.00  0.00    +0.292 HD
ENDBRANCH   6   7
BRANCH   5   9
ATOM      9  O2  UNL     1      62.051  18.411  11.580  0.00  0.00    -0.501 OA
ATOM     10  H4  UNL     1      62.813  18.984  11.373  0.00  0.00    +0.292 HD
ENDBRANCH   5   9
BRANCH   4  11
ATOM     11  O3  UNL     1      61.951  20.634  10.062  0.00  0.00    -0.503 OA
ATOM     12  H5  UNL     1      62.296  20.459  10.955  0.00  0.00    +0.292 HD
ENDBRANCH   4  11
BRANCH   2  13
ATOM     13  C7  UNL     1      58.977  18.354   6.859  0.00  0.00    +0.337 C 
ATOM     14  O4  UNL     1      58.395  19.296   6.355  0.00  0.00    -0.245 OA
BRANCH  13  15
ATOM     15  O5  UNL     1      58.927  17.126   6.313  0.00  0.00    -0.477 OA
ATOM     16  H6  UNL     1      59.806  16.742   6.522  0.00  0.00    +0.295 HD
ENDBRANCH  13  15
ENDBRANCH   2  13
TORSDOF 5
ENDMDL
MODEL 2
REMARK VINA RESULT:    -5.907      5.585      7.026
REMARK INTER + INTRA:          -6.999
REMARK INTER:                  -6.943
REMARK INTRA:                  -0.056
REMARK UNBOUND:                -0.056
REMARK  Name = data/mahkota_dewa_dn/results/docking/ligands/pdb/Gallic_acid.pdb
REMARK  5 active torsions:
REMARK  status: ('A' for Active; 'I' for Inactive)
REMARK    1  A    between atoms: C2_2  and  C7_10
REMARK    2  A    between atoms: C4_4  and  O3_9
REMARK    3  A    between atoms: C5_5  and  O2_8
REMARK    4  A    between atoms: C6_6  and  O1_7
REMARK    5  A    between atoms: C7_10  and  O5_12
REMARK                            x       y       z     vdW  Elec       q    Type
REMARK                         _______ _______ _______ _____ _____    ______ ____
ROOT
ATOM      1  C1  UNL     1      64.205  21.761   9.544  0.00  0.00    +0.064 A 
ATOM      2  C2  UNL     1      64.844  21.730  10.795  0.00  0.00    +0.066 A 
ATOM      3  C3  UNL     1      66.121  21.163  10.925  0.00  0.00    +0.064 A 
ATOM      4  C4  UNL     1      66.742  20.631   9.800  0.00  0.00    +0.163 A 
ATOM      5  C5  UNL     1      66.109  20.660   8.557  0.00  0.00    +0.201 A 
ATOM      6  C6  UNL     1      64.842  21.223   8.428  0.00  0.00    +0.163 A 
ENDROOT
BRANCH   6   7
ATOM      7  O1  UNL     1      64.235  21.244   7.205  0.00  0.00    -0.503 OA
ATOM      8  H3  UNL     1      64.909  21.237   6.507  0.00  0.00    +0.292 HD
ENDBRANCH   6   7
BRANCH   5   9
ATOM      9  O2  UNL     1      66.751  20.127   7.473  0.00  0.00    -0.501 OA
ATOM     10  H4  UNL     1      66.358  20.578   6.701  0.00  0.00    +0.292 HD
ENDBRANCH   5   9
BRANCH   4  11
ATOM     11  O3  UNL     1      67.986  20.064   9.867  0.00  0.00    -0.503 OA
ATOM     12  H5  UNL     1      68.648  20.741   9.643  0.00  0.00    +0.292 HD
ENDBRANCH   4  11
BRANCH   2  13
ATOM     13  C7  UNL     1      64.128  22.314  11.954  0.00  0.00    +0.337 C 
ATOM     14  O4  UNL     1      63.178  23.072  11.894  0.00  0.00    -0.245 OA
BRANCH  13  15
ATOM     15  O5  UNL     1      64.638  21.920  13.134  0.00  0.00    -0.477 OA
ATOM     16  H6  UNL     1      65.603  22.060  13.030  0.00  0.00    +0.295 HD
ENDBRANCH  13  15
ENDBRANCH   2  13
TORSDOF 5
ENDMDL
MODEL 3
REMARK VINA RESULT:    -5.901      5.563      6.941
REMARK INTER + INTRA:          -6.992
REMARK INTER:                  -6.933
REMARK INTRA:                  -0.059
REMARK UNBOUND:                -0.056
REMARK  Name = data/mahkota_dewa_dn/results/docking/ligands/pdb/Gallic_acid.pdb
REMARK  5 active torsions:
REMARK  status: ('A' for Active; 'I' for Inactive)
REMARK    1  A    between atoms: C2_2  and  C7_10
REMARK    2  A    between atoms: C4_4  and  O3_9
REMARK    3  A    between atoms: C5_5  and  O2_8
REMARK    4  A    between atoms: C6_6  and  O1_7
REMARK    5  A    between atoms: C7_10  and  O5_12
REMARK                            x       y       z     vdW  Elec       q    Type
REMARK                         _______ _______ _______ _____ _____    ______ ____
ROOT
ATOM      1  C1  UNL     1      66.030  21.156  10.889  0.00  0.00    +0.064 A 
ATOM      2  C2  UNL     1      64.761  21.737  10.735  0.00  0.00    +0.066 A 
ATOM      3  C3  UNL     1      64.143  21.768   9.476  0.00  0.00    +0.064 A 
ATOM      4  C4  UNL     1      64.806  21.217   8.384  0.00  0.00    +0.163 A 
ATOM      5  C5  UNL     1      66.066  20.639   8.535  0.00  0.00    +0.201 A 
ATOM      6  C6  UNL     1      66.680  20.608   9.784  0.00  0.00    +0.163 A 
ENDROOT
BRANCH   6   7
ATOM      7  O1  UNL     1      67.914  20.039   9.916  0.00  0.00    -0.503 OA
ATOM      8  H3  UNL     1      67.854  19.088   9.742  0.00  0.00    +0.292 HD
ENDBRANCH   6   7
BRANCH   5   9
ATOM      9  O2  UNL     1      66.687  20.107   7.438  0.00  0.00    -0.501 OA
ATOM     10  H4  UNL     1      66.427  20.685   6.696  0.00  0.00    +0.292 HD
ENDBRANCH   5   9
BRANCH   4  11
ATOM     11  O3  UNL     1      64.252  21.218   7.133  0.00  0.00    -0.503 OA
ATOM     12  H5  UNL     1      64.777  20.632   6.560  0.00  0.00    +0.292 HD
ENDBRANCH   4  11
BRANCH   2  13
ATOM     13  C7  UNL     1      64.109  22.307  11.938  0.00  0.00    +0.337 C 
ATOM     14  O4  UNL     1      63.150  23.056  11.940  0.00  0.00    -0.245 OA
BRANCH  13  15
ATOM     15  O5  UNL     1      64.692  21.912  13.084  0.00  0.00    -0.477 OA
ATOM     16  H6  UNL     1      65.061  21.029  12.865  0.00  0.00    +0.295 HD
ENDBRANCH  13  15
ENDBRANCH   2  13
TORSDOF 5
ENDMDL
MODEL 4
REMARK VINA RESULT:    -5.820      5.745      6.490
REMARK INTER + INTRA:          -6.897
REMARK INTER:                  -6.851
REMARK INTRA:                  -0.046
REMARK UNBOUND:                -0.056
REMARK  Name = data/mahkota_dewa_dn/results/docking/ligands/pdb/Gallic_acid.pdb
REMARK  5 active torsions:
REMARK  status: ('A' for Active; 'I' for Inactive)
REMARK    1  A    between atoms: C2_2  and  C7_10
REMARK    2  A    between atoms: C4_4  and  O3_9
REMARK    3  A    between atoms: C5_5  and  O2_8
REMARK    4  A    between atoms: C6_6  and  O1_7
REMARK    5  A    between atoms: C7_10  and  O5_12
REMARK                            x       y       z     vdW  Elec       q    Type
REMARK                         _______ _______ _______ _____ _____    ______ ____
ROOT
ATOM      1  C1  UNL     1      64.257  21.833   9.814  0.00  0.00    +0.064 A 
ATOM      2  C2  UNL     1      63.841  22.434  11.014  0.00  0.00    +0.066 A 
ATOM      3  C3  UNL     1      64.551  22.208  12.203  0.00  0.00    +0.064 A 
ATOM      4  C4  UNL     1      65.667  21.380  12.176  0.00  0.00    +0.163 A 
ATOM      5  C5  UNL     1      66.082  20.782  10.986  0.00  0.00    +0.201 A 
ATOM      6  C6  UNL     1      65.378  21.006   9.806  0.00  0.00    +0.163 A 
ENDROOT
BRANCH   6   7
ATOM      7  O1  UNL     1      65.795  20.414   8.649  0.00  0.00    -0.503 OA
ATOM      8  H3  UNL     1      65.155  20.593   7.943  0.00  0.00    +0.292 HD
ENDBRANCH   6   7
BRANCH   5   9
ATOM      9  O2  UNL     1      67.185  19.974  10.999  0.00  0.00    -0.501 OA
ATOM     10  H4  UNL     1      67.635  20.174  11.842  0.00  0.00    +0.292 HD
ENDBRANCH   5   9
BRANCH   4  11
ATOM     11  O3  UNL     1      66.398  21.123  13.305  0.00  0.00    -0.503 OA
ATOM     12  H5  UNL     1      66.541  20.163  13.370  0.00  0.00    +0.292 HD
ENDBRANCH   4  11
BRANCH   2  13
ATOM     13  C7  UNL     1      62.642  23.305  10.974  0.00  0.00    +0.337 C 
ATOM     14  O4  UNL     1      62.606  24.447  10.555  0.00  0.00    -0.245 OA
BRANCH  13  15
ATOM     15  O5  UNL     1      61.544  22.703  11.463  0.00  0.00    -0.477 OA
ATOM     16  H6  UNL     1      60.810  23.098  10.945  0.00  0.00    +0.295 HD
ENDBRANCH  13  15
ENDBRANCH   2  13
TORSDOF 5
ENDMDL
MODEL 5
REMARK VINA RESULT:    -5.802      7.476      8.775
REMARK INTER + INTRA:          -6.875
REMARK INTER:                  -6.818
REMARK INTRA:                  -0.057
REMARK UNBOUND:                -0.056
REMARK  Name = data/mahkota_dewa_dn/results/docking/ligands/pdb/Gallic_acid.pdb
REMARK  5 active torsions:
REMARK  status: ('A' for Active; 'I' for Inactive)
REMARK    1  A    between atoms: C2_2  and  C7_10
REMARK    2  A    between atoms: C4_4  and  O3_9
REMARK    3  A    between atoms: C5_5  and  O2_8
REMARK    4  A    between atoms: C6_6  and  O1_7
REMARK    5  A    between atoms: C7_10  and  O5_12
REMARK                            x       y       z     vdW  Elec       q    Type
REMARK                         _______ _______ _______ _____ _____    ______ ____
ROOT
ATOM      1  C1  UNL     1      67.017  21.517   6.957  0.00  0.00    +0.064 A 
ATOM      2  C2  UNL     1      68.118  22.381   6.838  0.00  0.00    +0.066 A 
ATOM      3  C3  UNL     1      69.079  22.448   7.858  0.00  0.00    +0.064 A 
ATOM      4  C4  UNL     1      68.925  21.650   8.986  0.00  0.00    +0.163 A 
ATOM      5  C5  UNL     1      67.832  20.792   9.107  0.00  0.00    +0.201 A 
ATOM      6  C6  UNL     1      66.878  20.725   8.095  0.00  0.00    +0.163 A 
ENDROOT
BRANCH   6   7
ATOM      7  O1  UNL     1      65.813  19.880   8.226  0.00  0.00    -0.503 OA
ATOM      8  H3  UNL     1      65.697  19.645   9.160  0.00  0.00    +0.292 HD
ENDBRANCH   6   7
BRANCH   5   9
ATOM      9  O2  UNL     1      67.713  20.022  10.230  0.00  0.00    -0.501 OA
ATOM     10  H4  UNL     1      67.582  19.112   9.900  0.00  0.00    +0.292 HD
ENDBRANCH   5   9
BRANCH   4  11
ATOM     11  O3  UNL     1      69.830  21.674  10.012  0.00  0.00    -0.503 OA
ATOM     12  H5  UNL     1      70.214  20.785  10.108  0.00  0.00    +0.292 HD
ENDBRANCH   4  11
BRANCH   2  13
ATOM     13  C7  UNL     1      68.223  23.205   5.611  0.00  0.00    +0.337 C 
ATOM     14  O4  UNL     1      67.350  23.354   4.777  0.00  0.00    -0.245 OA
BRANCH  13  15
ATOM     15  O5  UNL     1      69.421  23.805   5.487  0.00  0.00    -0.477 OA
ATOM     16  H6  UNL     1      69.594  23.783   4.521  0.00  0.00    +0.295 HD
ENDBRANCH  13  15
ENDBRANCH   2  13
TORSDOF 5
ENDMDL
MODEL 6
REMARK VINA RESULT:    -5.789      7.446      8.925
REMARK INTER + INTRA:          -6.861
REMARK INTER:                  -6.802
REMARK INTRA:                  -0.059
REMARK UNBOUND:                -0.056
REMARK  Name = data/mahkota_dewa_dn/results/docking/ligands/pdb/Gallic_acid.pdb
REMARK  5 active torsions:
REMARK  status: ('A' for Active; 'I' for Inactive)
REMARK    1  A    between atoms: C2_2  and  C7_10
REMARK    2  A    between atoms: C4_4  and  O3_9
REMARK    3  A    between atoms: C5_5  and  O2_8
REMARK    4  A    between atoms: C6_6  and  O1_7
REMARK    5  A    between atoms: C7_10  and  O5_12
REMARK                            x       y       z     vdW  Elec       q    Type
REMARK                         _______ _______ _______ _____ _____    ______ ____
ROOT
ATOM      1  C1  UNL     1      69.018  22.449   7.852  0.00  0.00    +0.064 A 
ATOM      2  C2  UNL     1      68.039  22.369   6.847  0.00  0.00    +0.066 A 
ATOM      3  C3  UNL     1      66.948  21.499   6.987  0.00  0.00    +0.064 A 
ATOM      4  C4  UNL     1      66.851  20.716   8.133  0.00  0.00    +0.163 A 
ATOM      5  C5  UNL     1      67.821  20.794   9.132  0.00  0.00    +0.201 A 
ATOM      6  C6  UNL     1      68.904  21.658   8.993  0.00  0.00    +0.163 A 
ENDROOT
BRANCH   6   7
ATOM      7  O1  UNL     1      69.846  21.723   9.979  0.00  0.00    -0.503 OA
ATOM      8  H3  UNL     1      70.347  20.893  10.006  0.00  0.00    +0.292 HD
ENDBRANCH   6   7
BRANCH   5   9
ATOM      9  O2  UNL     1      67.692  20.009  10.245  0.00  0.00    -0.501 OA
ATOM     10  H4  UNL     1      66.816  19.586  10.155  0.00  0.00    +0.292 HD
ENDBRANCH   5   9
BRANCH   4  11
ATOM     11  O3  UNL     1      65.810  19.849   8.324  0.00  0.00    -0.503 OA
ATOM     12  H5  UNL     1      66.169  18.953   8.441  0.00  0.00    +0.292 HD
ENDBRANCH   4  11
BRANCH   2  13
ATOM     13  C7  UNL     1      68.202  23.230   5.651  0.00  0.00    +0.337 C 
ATOM     14  O4  UNL     1      67.350  23.447   4.810  0.00  0.00    -0.245 OA
BRANCH  13  15
ATOM     15  O5  UNL     1      69.428  23.777   5.565  0.00  0.00    -0.477 OA
ATOM     16  H6  UNL     1      69.898  23.420   6.349  0.00  0.00    +0.295 HD
ENDBRANCH  13  15
ENDBRANCH   2  13
TORSDOF 5
ENDMDL
MODEL 7
REMARK VINA RESULT:    -5.773      0.341      2.559
REMARK INTER + INTRA:          -6.842
REMARK INTER:                  -6.783
REMARK INTRA:                  -0.059
REMARK UNBOUND:                -0.056
REMARK  Name = data/mahkota_dewa_dn/results/docking/ligands/pdb/Gallic_acid.pdb
REMARK  5 active torsions:
REMARK  status: ('A' for Active; 'I' for Inactive)
REMARK    1  A    between atoms: C2_2  and  C7_10
REMARK    2  A    between atoms: C4_4  and  O3_9
REMARK    3  A    between atoms: C5_5  and  O2_8
REMARK    4  A    between atoms: C6_6  and  O1_7
REMARK    5  A    between atoms: C7_10  and  O5_12
REMARK                            x       y       z     vdW  Elec       q    Type
REMARK                         _______ _______ _______ _____ _____    ______ ____
ROOT
ATOM      1  C1  UNL     1      60.535  19.628   8.499  0.00  0.00    +0.064 A 
ATOM      2  C2  UNL     1      59.790  18.498   8.123  0.00  0.00    +0.066 A 
ATOM      3  C3  UNL     1      59.820  17.336   8.909  0.00  0.00    +0.064 A 
ATOM      4  C4  UNL     1      60.598  17.319  10.061  0.00  0.00    +0.163 A 
ATOM      5  C5  UNL     1      61.340  18.440  10.436  0.00  0.00    +0.201 A 
ATOM      6  C6  UNL     1      61.309  19.594   9.657  0.00  0.00    +0.163 A 
ENDROOT
BRANCH   6   7
ATOM      7  O1  UNL     1      62.040  20.683  10.036  0.00  0.00    -0.503 OA
ATOM      8  H3  UNL     1      61.528  21.490   9.874  0.00  0.00    +0.292 HD
ENDBRANCH   6   7
BRANCH   5   9
ATOM      9  O2  UNL     1      62.093  18.387  11.576  0.00  0.00    -0.501 OA
ATOM     10  H4  UNL     1      62.939  17.984  11.301  0.00  0.00    +0.292 HD
ENDBRANCH   5   9
BRANCH   4  11
ATOM     11  O3  UNL     1      60.667  16.214  10.866  0.00  0.00    -0.503 OA
ATOM     12  H5  UNL     1      59.775  15.833  10.947  0.00  0.00    +0.292 HD
ENDBRANCH   4  11
BRANCH   2  13
ATOM     13  C7  UNL     1      58.982  18.581   6.884  0.00  0.00    +0.337 C 
ATOM     14  O4  UNL     1      58.345  17.671   6.388  0.00  0.00    -0.245 OA
BRANCH  13  15
ATOM     15  O5  UNL     1      59.011  19.803   6.323  0.00  0.00    -0.477 OA
ATOM     16  H6  UNL     1      58.428  19.714   5.538  0.00  0.00    +0.295 HD
ENDBRANCH  13  15
ENDBRANCH   2  13
TORSDOF 5
ENDMDL
MODEL 8
REMARK VINA RESULT:    -5.760      5.735      6.559
REMARK INTER + INTRA:          -6.827
REMARK INTER:                  -6.780
REMARK INTRA:                  -0.046
REMARK UNBOUND:                -0.056
REMARK  Name = data/mahkota_dewa_dn/results/docking/ligands/pdb/Gallic_acid.pdb
REMARK  5 active torsions:
REMARK  status: ('A' for Active; 'I' for Inactive)
REMARK    1  A    between atoms: C2_2  and  C7_10
REMARK    2  A    between atoms: C4_4  and  O3_9
REMARK    3  A    between atoms: C5_5  and  O2_8
REMARK    4  A    between atoms: C6_6  and  O1_7
REMARK    5  A    between atoms: C7_10  and  O5_12
REMARK                            x       y       z     vdW  Elec       q    Type
REMARK                         _______ _______ _______ _____ _____    ______ ____
ROOT
ATOM      1  C1  UNL     1      64.650  22.278  12.098  0.00  0.00    +0.064 A 
ATOM      2  C2  UNL     1      63.901  22.426  10.919  0.00  0.00    +0.066 A 
ATOM      3  C3  UNL     1      64.292  21.766   9.744  0.00  0.00    +0.064 A 
ATOM      4  C4  UNL     1      65.429  20.966   9.765  0.00  0.00    +0.163 A 
ATOM      5  C5  UNL     1      66.175  20.818  10.935  0.00  0.00    +0.201 A 
ATOM      6  C6  UNL     1      65.787  21.473  12.101  0.00  0.00    +0.163 A 
ENDROOT
BRANCH   6   7
ATOM      7  O1  UNL     1      66.526  21.319  13.239  0.00  0.00    -0.503 OA
ATOM      8  H3  UNL     1      66.496  22.137  13.759  0.00  0.00    +0.292 HD
ENDBRANCH   6   7
BRANCH   5   9
ATOM      9  O2  UNL     1      67.287  20.024  10.917  0.00  0.00    -0.501 OA
ATOM     10  H4  UNL     1      68.037  20.636  11.046  0.00  0.00    +0.292 HD
ENDBRANCH   5   9
BRANCH   4  11
ATOM     11  O3  UNL     1      65.858  20.299   8.650  0.00  0.00    -0.503 OA
ATOM     12  H5  UNL     1      65.112  19.793   8.284  0.00  0.00    +0.292 HD
ENDBRANCH   4  11
BRANCH   2  13
ATOM     13  C7  UNL     1      62.700  23.293  10.964  0.00  0.00    +0.337 C 
ATOM     14  O4  UNL     1      62.634  24.439  10.563  0.00  0.00    -0.245 OA
BRANCH  13  15
ATOM     15  O5  UNL     1      61.635  22.680  11.513  0.00  0.00    -0.477 OA
ATOM     16  H6  UNL     1      61.329  23.313  12.197  0.00  0.00    +0.295 HD
ENDBRANCH  13  15
ENDBRANCH   2  13
TORSDOF 5
ENDMDL
MODEL 9
REMARK VINA RESULT:    -5.728      5.753      6.673
REMARK INTER + INTRA:          -6.789
REMARK INTER:                  -6.737
REMARK INTRA:                  -0.053
REMARK UNBOUND:                -0.056
REMARK  Name = data/mahkota_dewa_dn/results/docking/ligands/pdb/Gallic_acid.pdb
REMARK  5 active torsions:
REMARK  status: ('A' for Active; 'I' for Inactive)
REMARK    1  A    between atoms: C2_2  and  C7_10
REMARK    2  A    between atoms: C4_4  and  O3_9
REMARK    3  A    between atoms: C5_5  and  O2_8
REMARK    4  A    between atoms: C6_6  and  O1_7
REMARK    5  A    between atoms: C7_10  and  O5_12
REMARK                            x       y       z     vdW  Elec       q    Type
REMARK                         _______ _______ _______ _____ _____    ______ ____
ROOT
ATOM      1  C1  UNL     1      65.956  21.227  11.328  0.00  0.00    +0.064 A 
ATOM      2  C2  UNL     1      65.714  21.149   9.946  0.00  0.00    +0.066 A 
ATOM      3  C3  UNL     1      64.555  21.716   9.397  0.00  0.00    +0.064 A 
ATOM      4  C4  UNL     1      63.650  22.354  10.238  0.00  0.00    +0.163 A 
ATOM      5  C5  UNL     1      63.888  22.433  11.610  0.00  0.00    +0.201 A 
ATOM      6  C6  UNL     1      65.039  21.871  12.156  0.00  0.00    +0.163 A 
ENDROOT
BRANCH   6   7
ATOM      7  O1  UNL     1      65.258  21.955  13.501  0.00  0.00    -0.503 OA
ATOM      8  H3  UNL     1      66.212  21.972  13.675  0.00  0.00    +0.292 HD
ENDBRANCH   6   7
BRANCH   5   9
ATOM      9  O2  UNL     1      62.976  23.069  12.406  0.00  0.00    -0.501 OA
ATOM     10  H4  UNL     1      62.760  22.424  13.107  0.00  0.00    +0.292 HD
ENDBRANCH   5   9
BRANCH   4  11
ATOM     11  O3  UNL     1      62.503  22.925   9.758  0.00  0.00    -0.503 OA
ATOM     12  H5  UNL     1      61.921  22.221   9.424  0.00  0.00    +0.292 HD
ENDBRANCH   4  11
BRANCH   2  13
ATOM     13  C7  UNL     1      66.718  20.454   9.105  0.00  0.00    +0.337 C 
ATOM     14  O4  UNL     1      67.925  20.514   9.244  0.00  0.00    -0.245 OA
BRANCH  13  15
ATOM     15  O5  UNL     1      66.160  19.718   8.128  0.00  0.00    -0.477 OA
ATOM     16  H6  UNL     1      65.286  20.141   7.987  0.00  0.00    +0.295 HD
ENDBRANCH  13  15
ENDBRANCH   2  13
TORSDOF 5
ENDMDL
