MODEL 1
REMARK VINA RESULT:    -7.799      0.000      0.000
REMARK INTER + INTRA:         -10.957
REMARK INTER:                 -10.534
REMARK INTRA:                  -0.423
REMARK UNBOUND:                -0.423
REMARK  Name = data/mahkota_dewa_dn/results/docking/ligands/pdb/Swertianin.pdb
REMARK  11 active torsions:
REMARK  status: ('A' for Active; 'I' for Inactive)
REMARK    1  A    between atoms: C1_1  and  O1_2
REMARK    2  A    between atoms: O1_2  and  C2_3
REMARK    3  A    between atoms: C6_7  and  C9_11
REMARK    4  A    between atoms: C7_8  and  O2_9
REMARK    5  A    between atoms: O2_9  and  C8_10
REMARK    6  A    between atoms: C13_16  and  O8_27
REMARK    7  A    between atoms: C14_17  and  O7_25
REMARK    8  A    between atoms: C15_18  and  O6_24
REMARK    9  A    between atoms: C16_19  and  O5_22
REMARK   10  A    between atoms: O5_22  and  C18_23
REMARK   11  A    between atoms: O7_25  and  C19_26
REMARK                            x       y       z     vdW  Elec       q    Type
REMARK                         _______ _______ _______ _____ _____    ______ ____
ROOT
ATOM      1  C9  UNL     1      61.498  20.026   9.424  0.00  0.00    +0.143 A 
ATOM      2  C10 UNL     1      61.147  18.765   9.696  0.00  0.00    +0.098 A 
ATOM      3  C11 UNL     1      60.149  18.093   8.847  0.00  0.00    +0.197 A 
ATOM      4  O3  UNL     1      59.825  16.944   9.116  0.00  0.00    -0.287 OA
ATOM      5  C12 UNL     1      59.609  18.878   7.710  0.00  0.00    +0.113 A 
ATOM      6  C13 UNL     1      58.650  18.367   6.824  0.00  0.00    +0.177 A 
ATOM      7  C14 UNL     1      58.133  19.141   5.767  0.00  0.00    +0.208 A 
ATOM      8  C15 UNL     1      58.608  20.442   5.605  0.00  0.00    +0.209 A 
ATOM      9  C16 UNL     1      59.594  20.957   6.465  0.00  0.00    +0.209 A 
ATOM     10  C17 UNL     1      60.074  20.186   7.532  0.00  0.00    +0.188 A 
ATOM     11  O4  UNL     1      60.971  20.772   8.391  0.00  0.00    -0.451 OA
ENDROOT
BRANCH   1  16
ATOM     12  C2  UNL     1      64.737  21.587  10.725  0.00  0.00    +0.162 A 
ATOM     13  C3  UNL     1      64.270  22.156  11.912  0.00  0.00    +0.049 A 
ATOM     14  C4  UNL     1      62.925  22.036  12.270  0.00  0.00    +0.004 A 
ATOM     15  C5  UNL     1      62.037  21.342  11.449  0.00  0.00    +0.015 A 
ATOM     16  C6  UNL     1      62.477  20.756  10.252  0.00  0.00    +0.063 A 
ATOM     17  C7  UNL     1      63.827  20.913   9.885  0.00  0.00    +0.172 A 
BRANCH  12  19
ATOM     18  C1  UNL     1      66.895  20.573  10.667  0.00  0.00    +0.277 C 
ATOM     19  O1  UNL     1      66.037  21.643  10.294  0.00  0.00    -0.491 OA
ENDBRANCH  12  19
BRANCH  17  20
ATOM     20  O2  UNL     1      64.273  20.342   8.713  0.00  0.00    -0.491 OA
ATOM     21  C8  UNL     1      64.308  21.314   7.669  0.00  0.00    +0.277 C 
ENDBRANCH  17  20
ENDBRANCH   1  16
BRANCH   9  22
ATOM     22  O5  UNL     1      59.970  22.255   6.197  0.00  0.00    -0.488 OA
ATOM     23  C18 UNL     1      61.216  22.378   5.511  0.00  0.00    +0.277 C 
ENDBRANCH   9  22
BRANCH   8  24
ATOM     24  O6  UNL     1      58.147  21.266   4.611  0.00  0.00    -0.501 OA
ATOM     25  H14 UNL     1      58.417  22.170   4.867  0.00  0.00    +0.292 HD
ENDBRANCH   8  24
BRANCH   7  26
ATOM     26  O7  UNL     1      57.195  18.477   5.016  0.00  0.00    -0.488 OA
ATOM     27  C19 UNL     1      57.609  17.887   3.791  0.00  0.00    +0.277 C 
ENDBRANCH   7  26
BRANCH   6  28
ATOM     28  O8  UNL     1      58.172  17.088   6.962  0.00  0.00    -0.503 OA
ATOM     29  H18 UNL     1      58.703  16.530   6.360  0.00  0.00    +0.292 HD
ENDBRANCH   6  28
TORSDOF 7
ENDMDL
MODEL 2
REMARK VINA RESULT:    -7.700      2.218      4.200
REMARK INTER + INTRA:         -10.825
REMARK INTER:                 -10.787
REMARK INTRA:                  -0.037
REMARK UNBOUND:                -0.423
REMARK  Name = data/mahkota_dewa_dn/results/docking/ligands/pdb/Swertianin.pdb
REMARK  11 active torsions:
REMARK  status: ('A' for Active; 'I' for Inactive)
REMARK    1  A    between atoms: C1_1  and  O1_2
REMARK    2  A    between atoms: O1_2  and  C2_3
REMARK    3  A    between atoms: C6_7  and  C9_11
REMARK    4  A    between atoms: C7_8  and  O2_9
REMARK    5  A    between atoms: O2_9  and  C8_10
REMARK    6  A    between atoms: C13_16  and  O8_27
REMARK    7  A    between atoms: C14_17  and  O7_25
REMARK    8  A    between atoms: C15_18  and  O6_24
REMARK    9  A    between atoms: C16_19  and  O5_22
REMARK   10  A    between atoms: O5_22  and  C18_23
REMARK   11  A    between atoms: O7_25  and  C19_26
REMARK                            x       y       z     vdW  Elec       q    Type
REMARK                         _______ _______ _______ _____ _____    ______ ____
ROOT
ATOM      1  C9  UNL     1      61.014  20.582   8.464  0.00  0.00    +0.143 A 
ATOM      2  C10 UNL     1      61.549  20.151   9.612  0.00  0.00    +0.098 A 
ATOM      3  C11 UNL     1      61.210  18.806  10.107  0.00  0.00    +0.197 A 
ATOM      4  O3  UNL     1      61.694  18.430  11.165  0.00  0.00    -0.287 OA
ATOM      5  C12 UNL     1      60.294  18.000   9.264  0.00  0.00    +0.113 A 
ATOM      6  C13 UNL     1      59.882  16.707   9.614  0.00  0.00    +0.177 A 
ATOM      7  C14 UNL     1      58.991  15.971   8.810  0.00  0.00    +0.208 A 
ATOM      8  C15 UNL     1      58.526  16.554   7.633  0.00  0.00    +0.209 A 
ATOM      9  C16 UNL     1      58.956  17.838   7.250  0.00  0.00    +0.209 A 
ATOM     10  C17 UNL     1      59.817  18.570   8.078  0.00  0.00    +0.188 A 
ATOM     11  O4  UNL     1      60.133  19.851   7.696  0.00  0.00    -0.451 OA
ENDROOT
BRANCH   1  16
ATOM     12  C2  UNL     1      62.804  23.609   6.964  0.00  0.00    +0.162 A 
ATOM     13  C3  UNL     1      61.751  24.527   6.946  0.00  0.00    +0.049 A 
ATOM     14  C4  UNL     1      60.485  24.156   7.406  0.00  0.00    +0.004 A 
ATOM     15  C5  UNL     1      60.263  22.869   7.895  0.00  0.00    +0.015 A 
ATOM     16  C6  UNL     1      61.302  21.927   7.930  0.00  0.00    +0.063 A 
ATOM     17  C7  UNL     1      62.564  22.302   7.431  0.00  0.00    +0.172 A 
BRANCH  12  19
ATOM     18  C1  UNL     1      64.263  24.194   5.170  0.00  0.00    +0.277 C 
ATOM     19  O1  UNL     1      64.080  23.881   6.544  0.00  0.00    -0.491 OA
ENDBRANCH  12  19
BRANCH  17  20
ATOM     20  O2  UNL     1      63.593  21.386   7.461  0.00  0.00    -0.491 OA
ATOM     21  C8  UNL     1      64.471  21.659   8.553  0.00  0.00    +0.277 C 
ENDBRANCH  17  20
ENDBRANCH   1  16
BRANCH   9  22
ATOM     22  O5  UNL     1      58.416  18.296   6.068  0.00  0.00    -0.488 OA
ATOM     23  C18 UNL     1      57.170  18.979   6.214  0.00  0.00    +0.277 C 
ENDBRANCH   9  22
BRANCH   8  24
ATOM     24  O6  UNL     1      57.645  15.912   6.800  0.00  0.00    -0.501 OA
ATOM     25  H14 UNL     1      57.931  14.978   6.778  0.00  0.00    +0.292 HD
ENDBRANCH   8  24
BRANCH   7  26
ATOM     26  O7  UNL     1      58.692  14.732   9.323  0.00  0.00    -0.488 OA
ATOM     27  C19 UNL     1      57.389  14.519   9.848  0.00  0.00    +0.277 C 
ENDBRANCH   7  26
BRANCH   6  28
ATOM     28  O8  UNL     1      60.331  16.112  10.767  0.00  0.00    -0.503 OA
ATOM     29  H18 UNL     1      60.133  15.159  10.679  0.00  0.00    +0.292 HD
ENDBRANCH   6  28
TORSDOF 7
ENDMDL
MODEL 3
REMARK VINA RESULT:    -7.690      1.822      2.320
REMARK INTER + INTRA:         -10.810
REMARK INTER:                 -10.791
REMARK INTRA:                  -0.019
REMARK UNBOUND:                -0.423
REMARK  Name = data/mahkota_dewa_dn/results/docking/ligands/pdb/Swertianin.pdb
REMARK  11 active torsions:
REMARK  status: ('A' for Active; 'I' for Inactive)
REMARK    1  A    between atoms: C1_1  and  O1_2
REMARK    2  A    between atoms: O1_2  and  C2_3
REMARK    3  A    between atoms: C6_7  and  C9_11
REMARK    4  A    between atoms: C7_8  and  O2_9
REMARK    5  A    between atoms: O2_9  and  C8_10
REMARK    6  A    between atoms: C13_16  and  O8_27
REMARK    7  A    between atoms: C14_17  and  O7_25
REMARK    8  A    between atoms: C15_18  and  O6_24
REMARK    9  A    between atoms: C16_19  and  O5_22
REMARK   10  A    between atoms: O5_22  and  C18_23
REMARK   11  A    between atoms: O7_25  and  C19_26
REMARK                            x       y       z     vdW  Elec       q    Type
REMARK                         _______ _______ _______ _____ _____    ______ ____
ROOT
ATOM      1  C9  UNL     1      61.172  19.976   9.513  0.00  0.00    +0.143 A 
ATOM      2  C10 UNL     1      61.255  18.806  10.154  0.00  0.00    +0.098 A 
ATOM      3  C11 UNL     1      60.519  17.642   9.632  0.00  0.00    +0.197 A 
ATOM      4  O3  UNL     1      60.590  16.582  10.238  0.00  0.00    -0.287 OA
ATOM      5  C12 UNL     1      59.736  17.854   8.390  0.00  0.00    +0.113 A 
ATOM      6  C13 UNL     1      58.984  16.838   7.785  0.00  0.00    +0.177 A 
ATOM      7  C14 UNL     1      58.229  17.069   6.620  0.00  0.00    +0.208 A 
ATOM      8  C15 UNL     1      58.252  18.346   6.060  0.00  0.00    +0.209 A 
ATOM      9  C16 UNL     1      59.028  19.368   6.635  0.00  0.00    +0.209 A 
ATOM     10  C17 UNL     1      59.747  19.129   7.814  0.00  0.00    +0.188 A 
ATOM     11  O4  UNL     1      60.416  20.187   8.378  0.00  0.00    -0.451 OA
ENDROOT
BRANCH   1  16
ATOM     12  C2  UNL     1      63.058  23.299   9.648  0.00  0.00    +0.162 A 
ATOM     13  C3  UNL     1      63.206  23.436  11.031  0.00  0.00    +0.049 A 
ATOM     14  C4  UNL     1      62.690  22.466  11.894  0.00  0.00    +0.004 A 
ATOM     15  C5  UNL     1      62.031  21.348  11.384  0.00  0.00    +0.015 A 
ATOM     16  C6  UNL     1      61.871  21.181  10.000  0.00  0.00    +0.063 A 
ATOM     17  C7  UNL     1      62.364  22.183   9.142  0.00  0.00    +0.172 A 
BRANCH  12  19
ATOM     18  C1  UNL     1      63.143  25.549   8.861  0.00  0.00    +0.277 C 
ATOM     19  O1  UNL     1      63.536  24.191   8.723  0.00  0.00    -0.491 OA
ENDBRANCH  12  19
BRANCH  17  20
ATOM     20  O2  UNL     1      62.215  22.030   7.780  0.00  0.00    -0.491 OA
ATOM     21  C8  UNL     1      63.429  21.559   7.197  0.00  0.00    +0.277 C 
ENDBRANCH  17  20
ENDBRANCH   1  16
BRANCH   9  22
ATOM     22  O5  UNL     1      58.956  20.580   5.984  0.00  0.00    -0.488 OA
ATOM     23  C18 UNL     1      60.055  20.846   5.111  0.00  0.00    +0.277 C 
ENDBRANCH   9  22
BRANCH   8  24
ATOM     24  O6  UNL     1      57.534  18.660   4.934  0.00  0.00    -0.501 OA
ATOM     25  H14 UNL     1      57.252  17.807   4.550  0.00  0.00    +0.292 HD
ENDBRANCH   8  24
BRANCH   7  26
ATOM     26  O7  UNL     1      57.548  15.959   6.184  0.00  0.00    -0.488 OA
ATOM     27  C19 UNL     1      56.145  15.904   6.403  0.00  0.00    +0.277 C 
ENDBRANCH   7  26
BRANCH   6  28
ATOM     28  O8  UNL     1      58.951  15.572   8.318  0.00  0.00    -0.503 OA
ATOM     29  H18 UNL     1      59.721  15.506   8.915  0.00  0.00    +0.292 HD
ENDBRANCH   6  28
TORSDOF 7
ENDMDL
MODEL 4
REMARK VINA RESULT:    -7.496      2.038      7.446
REMARK INTER + INTRA:         -10.549
REMARK INTER:                 -10.940
REMARK INTRA:                   0.390
REMARK UNBOUND:                -0.423
REMARK  Name = data/mahkota_dewa_dn/results/docking/ligands/pdb/Swertianin.pdb
REMARK  11 active torsions:
REMARK  status: ('A' for Active; 'I' for Inactive)
REMARK    1  A    between atoms: C1_1  and  O1_2
REMARK    2  A    between atoms: O1_2  and  C2_3
REMARK    3  A    between atoms: C6_7  and  C9_11
REMARK    4  A    between atoms: C7_8  and  O2_9
REMARK    5  A    between atoms: O2_9  and  C8_10
REMARK    6  A    between atoms: C13_16  and  O8_27
REMARK    7  A    between atoms: C14_17  and  O7_25
REMARK    8  A    between atoms: C15_18  and  O6_24
REMARK    9  A    between atoms: C16_19  and  O5_22
REMARK   10  A    between atoms: O5_22  and  C18_23
REMARK   11  A    between atoms: O7_25  and  C19_26
REMARK                            x       y       z     vdW  Elec       q    Type
REMARK                         _______ _______ _______ _____ _____    ______ ____
ROOT
ATOM      1  C9  UNL     1      59.259  18.154   7.580  0.00  0.00    +0.143 A 
ATOM      2  C10 UNL     1      59.663  17.277   8.506  0.00  0.00    +0.098 A 
ATOM      3  C11 UNL     1      60.593  17.715   9.560  0.00  0.00    +0.197 A 
ATOM      4  O3  UNL     1      60.967  16.898  10.391  0.00  0.00    -0.287 OA
ATOM      5  C12 UNL     1      61.009  19.138   9.529  0.00  0.00    +0.113 A 
ATOM      6  C13 UNL     1      61.893  19.691  10.466  0.00  0.00    +0.177 A 
ATOM      7  C14 UNL     1      62.292  21.039  10.401  0.00  0.00    +0.208 A 
ATOM      8  C15 UNL     1      61.776  21.834   9.379  0.00  0.00    +0.209 A 
ATOM      9  C16 UNL     1      60.861  21.304   8.451  0.00  0.00    +0.209 A 
ATOM     10  C17 UNL     1      60.500  19.951   8.510  0.00  0.00    +0.188 A 
ATOM     11  O4  UNL     1      59.672  19.469   7.526  0.00  0.00    -0.451 OA
ENDROOT
BRANCH   1  16
ATOM     12  C2  UNL     1      56.350  16.631   5.623  0.00  0.00    +0.162 A 
ATOM     13  C3  UNL     1      56.671  17.067   4.335  0.00  0.00    +0.049 A 
ATOM     14  C4  UNL     1      57.809  17.849   4.119  0.00  0.00    +0.004 A 
ATOM     15  C5  UNL     1      58.639  18.194   5.186  0.00  0.00    +0.015 A 
ATOM     16  C6  UNL     1      58.344  17.767   6.490  0.00  0.00    +0.063 A 
ATOM     17  C7  UNL     1      57.176  17.009   6.700  0.00  0.00    +0.172 A 
BRANCH  12  19
ATOM     18  C1  UNL     1      53.979  16.364   5.594  0.00  0.00    +0.277 C 
ATOM     19  O1  UNL     1      55.263  15.855   5.932  0.00  0.00    -0.491 OA
ENDBRANCH  12  19
BRANCH  17  20
ATOM     20  O2  UNL     1      56.876  16.583   7.975  0.00  0.00    -0.491 OA
ATOM     21  C8  UNL     1      57.096  15.178   8.094  0.00  0.00    +0.277 C 
ENDBRANCH  17  20
ENDBRANCH   1  16
BRANCH   9  22
ATOM     22  O5  UNL     1      60.433  22.196   7.493  0.00  0.00    -0.488 OA
ATOM     23  C18 UNL     1      61.142  22.116   6.255  0.00  0.00    +0.277 C 
ENDBRANCH   9  22
BRANCH   8  24
ATOM     24  O6  UNL     1      62.123  23.153   9.236  0.00  0.00    -0.501 OA
ATOM     25  H14 UNL     1      62.901  23.161   8.644  0.00  0.00    +0.292 HD
ENDBRANCH   8  24
BRANCH   7  26
ATOM     26  O7  UNL     1      63.173  21.393  11.394  0.00  0.00    -0.488 OA
ATOM     27  C19 UNL     1      64.535  21.593  11.043  0.00  0.00    +0.277 C 
ENDBRANCH   7  26
BRANCH   6  28
ATOM     28  O8  UNL     1      62.410  18.927  11.483  0.00  0.00    -0.503 OA
ATOM     29  H18 UNL     1      61.872  19.121  12.274  0.00  0.00    +0.292 HD
ENDBRANCH   6  28
TORSDOF 7
ENDMDL
MODEL 5
REMARK VINA RESULT:    -7.419      2.321      3.819
REMARK INTER + INTRA:         -10.444
REMARK INTER:                 -10.690
REMARK INTRA:                   0.246
REMARK UNBOUND:                -0.423
REMARK  Name = data/mahkota_dewa_dn/results/docking/ligands/pdb/Swertianin.pdb
REMARK  11 active torsions:
REMARK  status: ('A' for Active; 'I' for Inactive)
REMARK    1  A    between atoms: C1_1  and  O1_2
REMARK    2  A    between atoms: O1_2  and  C2_3
REMARK    3  A    between atoms: C6_7  and  C9_11
REMARK    4  A    between atoms: C7_8  and  O2_9
REMARK    5  A    between atoms: O2_9  and  C8_10
REMARK    6  A    between atoms: C13_16  and  O8_27
REMARK    7  A    between atoms: C14_17  and  O7_25
REMARK    8  A    between atoms: C15_18  and  O6_24
REMARK    9  A    between atoms: C16_19  and  O5_22
REMARK   10  A    between atoms: O5_22  and  C18_23
REMARK   11  A    between atoms: O7_25  and  C19_26
REMARK                            x       y       z     vdW  Elec       q    Type
REMARK                         _______ _______ _______ _____ _____    ______ ____
ROOT
ATOM      1  C9  UNL     1      61.111  19.971   8.778  0.00  0.00    +0.143 A 
ATOM      2  C10 UNL     1      61.486  19.188   9.795  0.00  0.00    +0.098 A 
ATOM      3  C11 UNL     1      60.833  17.881   9.980  0.00  0.00    +0.197 A 
ATOM      4  O3  UNL     1      61.175  17.182  10.924  0.00  0.00    -0.287 OA
ATOM      5  C12 UNL     1      59.796  17.510   8.987  0.00  0.00    +0.113 A 
ATOM      6  C13 UNL     1      59.091  16.301   9.042  0.00  0.00    +0.177 A 
ATOM      7  C14 UNL     1      58.093  15.981   8.102  0.00  0.00    +0.208 A 
ATOM      8  C15 UNL     1      57.821  16.899   7.088  0.00  0.00    +0.209 A 
ATOM      9  C16 UNL     1      58.544  18.103   6.998  0.00  0.00    +0.209 A 
ATOM     10  C17 UNL     1      59.510  18.420   7.962  0.00  0.00    +0.188 A 
ATOM     11  O4  UNL     1      60.122  19.646   7.873  0.00  0.00    -0.451 OA
ENDROOT
BRANCH   1  16
ATOM     12  C2  UNL     1      62.389  23.536   9.304  0.00  0.00    +0.162 A 
ATOM     13  C3  UNL     1      62.870  23.811   8.022  0.00  0.00    +0.049 A 
ATOM     14  C4  UNL     1      62.785  22.846   7.015  0.00  0.00    +0.004 A 
ATOM     15  C5  UNL     1      62.211  21.603   7.278  0.00  0.00    +0.015 A 
ATOM     16  C6  UNL     1      61.715  21.299   8.555  0.00  0.00    +0.063 A 
ATOM     17  C7  UNL     1      61.838  22.266   9.570  0.00  0.00    +0.172 A 
BRANCH  12  19
ATOM     18  C1  UNL     1      62.435  25.804  10.039  0.00  0.00    +0.277 C 
ATOM     19  O1  UNL     1      62.419  24.418  10.352  0.00  0.00    -0.491 OA
ENDBRANCH  12  19
BRANCH  17  20
ATOM     20  O2  UNL     1      61.354  21.981  10.828  0.00  0.00    -0.491 OA
ATOM     21  C8  UNL     1      62.431  21.758  11.737  0.00  0.00    +0.277 C 
ENDBRANCH  17  20
ENDBRANCH   1  16
BRANCH   9  22
ATOM     22  O5  UNL     1      58.172  18.919   5.953  0.00  0.00    -0.488 OA
ATOM     23  C18 UNL     1      59.022  18.837   4.808  0.00  0.00    +0.277 C 
ENDBRANCH   9  22
BRANCH   8  24
ATOM     24  O6  UNL     1      56.856  16.673   6.141  0.00  0.00    -0.501 OA
ATOM     25  H14 UNL     1      56.010  16.935   6.554  0.00  0.00    +0.292 HD
ENDBRANCH   8  24
BRANCH   7  26
ATOM     26  O7  UNL     1      57.503  14.762   8.328  0.00  0.00    -0.488 OA
ATOM     27  C19 UNL     1      56.306  14.727   9.093  0.00  0.00    +0.277 C 
ENDBRANCH   7  26
BRANCH   6  28
ATOM     28  O8  UNL     1      59.345  15.381  10.030  0.00  0.00    -0.503 OA
ATOM     29  H18 UNL     1      59.902  15.835  10.691  0.00  0.00    +0.292 HD
ENDBRANCH   6  28
TORSDOF 7
ENDMDL
MODEL 6
REMARK VINA RESULT:    -7.336      2.349      6.505
REMARK INTER + INTRA:         -10.333
REMARK INTER:                 -10.925
REMARK INTRA:                   0.592
REMARK UNBOUND:                -0.423
REMARK  Name = data/mahkota_dewa_dn/results/docking/ligands/pdb/Swertianin.pdb
REMARK  11 active torsions:
REMARK  status: ('A' for Active; 'I' for Inactive)
REMARK    1  A    between atoms: C1_1  and  O1_2
REMARK    2  A    between atoms: O1_2  and  C2_3
REMARK    3  A    between atoms: C6_7  and  C9_11
REMARK    4  A    between atoms: C7_8  and  O2_9
REMARK    5  A    between atoms: O2_9  and  C8_10
REMARK    6  A    between atoms: C13_16  and  O8_27
REMARK    7  A    between atoms: C14_17  and  O7_25
REMARK    8  A    between atoms: C15_18  and  O6_24
REMARK    9  A    between atoms: C16_19  and  O5_22
REMARK   10  A    between atoms: O5_22  and  C18_23
REMARK   11  A    between atoms: O7_25  and  C19_26
REMARK                            x       y       z     vdW  Elec       q    Type
REMARK                         _______ _______ _______ _____ _____    ______ ____
ROOT
ATOM      1  C9  UNL     1      60.412  18.623   9.041  0.00  0.00    +0.143 A 
ATOM      2  C10 UNL     1      61.288  18.743  10.044  0.00  0.00    +0.098 A 
ATOM      3  C11 UNL     1      62.013  20.012  10.224  0.00  0.00    +0.197 A 
ATOM      4  O3  UNL     1      62.822  20.102  11.137  0.00  0.00    -0.287 OA
ATOM      5  C12 UNL     1      61.695  21.099   9.267  0.00  0.00    +0.113 A 
ATOM      6  C13 UNL     1      62.312  22.357   9.315  0.00  0.00    +0.177 A 
ATOM      7  C14 UNL     1      62.013  23.365   8.380  0.00  0.00    +0.208 A 
ATOM      8  C15 UNL     1      61.066  23.092   7.393  0.00  0.00    +0.209 A 
ATOM      9  C16 UNL     1      60.413  21.847   7.351  0.00  0.00    +0.209 A 
ATOM     10  C17 UNL     1      60.748  20.843   8.269  0.00  0.00    +0.188 A 
ATOM     11  O4  UNL     1      60.141  19.619   8.126  0.00  0.00    -0.451 OA
ENDROOT
BRANCH   1  16
ATOM     12  C2  UNL     1      58.285  15.894   7.414  0.00  0.00    +0.162 A 
ATOM     13  C3  UNL     1      58.273  14.952   8.446  0.00  0.00    +0.049 A 
ATOM     14  C4  UNL     1      58.954  15.204   9.639  0.00  0.00    +0.004 A 
ATOM     15  C5  UNL     1      59.645  16.403   9.815  0.00  0.00    +0.015 A 
ATOM     16  C6  UNL     1      59.672  17.370   8.800  0.00  0.00    +0.063 A 
ATOM     17  C7  UNL     1      59.012  17.089   7.588  0.00  0.00    +0.172 A 
BRANCH  12  19
ATOM     18  C1  UNL     1      56.927  14.531   6.005  0.00  0.00    +0.277 C 
ATOM     19  O1  UNL     1      57.642  15.742   6.214  0.00  0.00    -0.491 OA
ENDBRANCH  12  19
BRANCH  17  20
ATOM     20  O2  UNL     1      59.029  18.031   6.583  0.00  0.00    -0.491 OA
ATOM     21  C8  UNL     1      57.721  18.563   6.376  0.00  0.00    +0.277 C 
ENDBRANCH  17  20
ENDBRANCH   1  16
BRANCH   9  22
ATOM     22  O5  UNL     1      59.506  21.709   6.324  0.00  0.00    -0.488 OA
ATOM     23  C18 UNL     1      60.055  21.172   5.119  0.00  0.00    +0.277 C 
ENDBRANCH   9  22
BRANCH   8  24
ATOM     24  O6  UNL     1      60.727  24.013   6.435  0.00  0.00    -0.501 OA
ATOM     25  H14 UNL     1      60.870  24.889   6.844  0.00  0.00    +0.292 HD
ENDBRANCH   8  24
BRANCH   7  26
ATOM     26  O7  UNL     1      62.727  24.521   8.579  0.00  0.00    -0.488 OA
ATOM     27  C19 UNL     1      62.056  25.635   9.153  0.00  0.00    +0.277 C 
ENDBRANCH   7  26
BRANCH   6  28
ATOM     28  O8  UNL     1      63.244  22.648  10.281  0.00  0.00    -0.503 OA
ATOM     29  H18 UNL     1      63.034  23.546  10.603  0.00  0.00    +0.292 HD
ENDBRANCH   6  28
TORSDOF 7
ENDMDL
MODEL 7
REMARK VINA RESULT:    -7.067      1.956      7.837
REMARK INTER + INTRA:          -9.969
REMARK INTER:                  -9.733
REMARK INTRA:                  -0.236
REMARK UNBOUND:                -0.423
REMARK  Name = data/mahkota_dewa_dn/results/docking/ligands/pdb/Swertianin.pdb
REMARK  11 active torsions:
REMARK  status: ('A' for Active; 'I' for Inactive)
REMARK    1  A    between atoms: C1_1  and  O1_2
REMARK    2  A    between atoms: O1_2  and  C2_3
REMARK    3  A    between atoms: C6_7  and  C9_11
REMARK    4  A    between atoms: C7_8  and  O2_9
REMARK    5  A    between atoms: O2_9  and  C8_10
REMARK    6  A    between atoms: C13_16  and  O8_27
REMARK    7  A    between atoms: C14_17  and  O7_25
REMARK    8  A    between atoms: C15_18  and  O6_24
REMARK    9  A    between atoms: C16_19  and  O5_22
REMARK   10  A    between atoms: O5_22  and  C18_23
REMARK   11  A    between atoms: O7_25  and  C19_26
REMARK                            x       y       z     vdW  Elec       q    Type
REMARK                         _______ _______ _______ _____ _____    ______ ____
ROOT
ATOM      1  C9  UNL     1      59.146  19.815   6.274  0.00  0.00    +0.143 A 
ATOM      2  C10 UNL     1      59.075  21.146   6.169  0.00  0.00    +0.098 A 
ATOM      3  C11 UNL     1      59.760  21.987   7.166  0.00  0.00    +0.197 A 
ATOM      4  O3  UNL     1      59.674  23.204   7.066  0.00  0.00    -0.287 OA
ATOM      5  C12 UNL     1      60.512  21.278   8.228  0.00  0.00    +0.113 A 
ATOM      6  C13 UNL     1      61.206  21.950   9.244  0.00  0.00    +0.177 A 
ATOM      7  C14 UNL     1      61.893  21.254  10.257  0.00  0.00    +0.208 A 
ATOM      8  C15 UNL     1      61.883  19.860  10.226  0.00  0.00    +0.209 A 
ATOM      9  C16 UNL     1      61.220  19.171   9.195  0.00  0.00    +0.209 A 
ATOM     10  C17 UNL     1      60.513  19.879   8.213  0.00  0.00    +0.188 A 
ATOM     11  O4  UNL     1      59.814  19.151   7.282  0.00  0.00    -0.451 OA
ENDROOT
BRANCH   1  16
ATOM     12  C2  UNL     1      56.757  17.262   4.728  0.00  0.00    +0.162 A 
ATOM     13  C3  UNL     1      57.244  17.239   3.418  0.00  0.00    +0.049 A 
ATOM     14  C4  UNL     1      58.322  18.049   3.053  0.00  0.00    +0.004 A 
ATOM     15  C5  UNL     1      58.928  18.881   3.994  0.00  0.00    +0.015 A 
ATOM     16  C6  UNL     1      58.464  18.923   5.317  0.00  0.00    +0.063 A 
ATOM     17  C7  UNL     1      57.354  18.128   5.664  0.00  0.00    +0.172 A 
BRANCH  12  19
ATOM     18  C1  UNL     1      55.728  15.115   4.866  0.00  0.00    +0.277 C 
ATOM     19  O1  UNL     1      55.712  16.500   5.182  0.00  0.00    -0.491 OA
ENDBRANCH  12  19
BRANCH  17  20
ATOM     20  O2  UNL     1      56.889  18.159   6.961  0.00  0.00    -0.491 OA
ATOM     21  C8  UNL     1      57.331  17.005   7.675  0.00  0.00    +0.277 C 
ENDBRANCH  17  20
ENDBRANCH   1  16
BRANCH   9  22
ATOM     22  O5  UNL     1      61.285  17.798   9.287  0.00  0.00    -0.488 OA
ATOM     23  C18 UNL     1      60.199  17.203   9.999  0.00  0.00    +0.277 C 
ENDBRANCH   9  22
BRANCH   8  24
ATOM     24  O6  UNL     1      62.514  19.106  11.182  0.00  0.00    -0.501 OA
ATOM     25  H14 UNL     1      62.050  18.246  11.193  0.00  0.00    +0.292 HD
ENDBRANCH   8  24
BRANCH   7  26
ATOM     26  O7  UNL     1      62.497  22.082  11.171  0.00  0.00    -0.488 OA
ATOM     27  C19 UNL     1      63.909  22.238  11.105  0.00  0.00    +0.277 C 
ENDBRANCH   7  26
BRANCH   6  28
ATOM     28  O8  UNL     1      61.232  23.322   9.292  0.00  0.00    -0.503 OA
ATOM     29  H18 UNL     1      60.350  23.624   9.002  0.00  0.00    +0.292 HD
ENDBRANCH   6  28
TORSDOF 7
ENDMDL
MODEL 8
REMARK VINA RESULT:    -6.978      2.370      6.752
REMARK INTER + INTRA:          -9.849
REMARK INTER:                 -10.647
REMARK INTRA:                   0.797
REMARK UNBOUND:                -0.423
REMARK  Name = data/mahkota_dewa_dn/results/docking/ligands/pdb/Swertianin.pdb
REMARK  11 active torsions:
REMARK  status: ('A' for Active; 'I' for Inactive)
REMARK    1  A    between atoms: C1_1  and  O1_2
REMARK    2  A    between atoms: O1_2  and  C2_3
REMARK    3  A    between atoms: C6_7  and  C9_11
REMARK    4  A    between atoms: C7_8  and  O2_9
REMARK    5  A    between atoms: O2_9  and  C8_10
REMARK    6  A    between atoms: C13_16  and  O8_27
REMARK    7  A    between atoms: C14_17  and  O7_25
REMARK    8  A    between atoms: C15_18  and  O6_24
REMARK    9  A    between atoms: C16_19  and  O5_22
REMARK   10  A    between atoms: O5_22  and  C18_23
REMARK   11  A    between atoms: O7_25  and  C19_26
REMARK                            x       y       z     vdW  Elec       q    Type
REMARK                         _______ _______ _______ _____ _____    ______ ____
ROOT
ATOM      1  C9  UNL     1      60.124  19.259   8.117  0.00  0.00    +0.143 A 
ATOM      2  C10 UNL     1      59.590  19.733   6.986  0.00  0.00    +0.098 A 
ATOM      3  C11 UNL     1      59.923  21.098   6.546  0.00  0.00    +0.197 A 
ATOM      4  O3  UNL     1      59.415  21.525   5.519  0.00  0.00    -0.287 OA
ATOM      5  C12 UNL     1      60.866  21.859   7.401  0.00  0.00    +0.113 A 
ATOM      6  C13 UNL     1      61.268  23.170   7.107  0.00  0.00    +0.177 A 
ATOM      7  C14 UNL     1      62.145  23.881   7.947  0.00  0.00    +0.208 A 
ATOM      8  C15 UNL     1      62.628  23.246   9.090  0.00  0.00    +0.209 A 
ATOM      9  C16 UNL     1      62.262  21.919   9.381  0.00  0.00    +0.209 A 
ATOM     10  C17 UNL     1      61.361  21.237   8.553  0.00  0.00    +0.188 A 
ATOM     11  O4  UNL     1      60.973  19.976   8.934  0.00  0.00    -0.451 OA
ENDROOT
BRANCH   1  16
ATOM     12  C2  UNL     1      58.627  15.761   8.493  0.00  0.00    +0.162 A 
ATOM     13  C3  UNL     1      59.268  15.349   9.664  0.00  0.00    +0.049 A 
ATOM     14  C4  UNL     1      60.175  16.196  10.307  0.00  0.00    +0.004 A 
ATOM     15  C5  UNL     1      60.442  17.464   9.789  0.00  0.00    +0.015 A 
ATOM     16  C6  UNL     1      59.811  17.907   8.617  0.00  0.00    +0.063 A 
ATOM     17  C7  UNL     1      58.926  17.030   7.960  0.00  0.00    +0.172 A 
BRANCH  12  19
ATOM     18  C1  UNL     1      57.090  13.937   8.492  0.00  0.00    +0.277 C 
ATOM     19  O1  UNL     1      57.718  15.006   7.798  0.00  0.00    -0.491 OA
ENDBRANCH  12  19
BRANCH  17  20
ATOM     20  O2  UNL     1      58.298  17.453   6.808  0.00  0.00    -0.491 OA
ATOM     21  C8  UNL     1      56.921  17.724   7.064  0.00  0.00    +0.277 C 
ENDBRANCH  17  20
ENDBRANCH   1  16
BRANCH   9  22
ATOM     22  O5  UNL     1      62.806  21.414  10.542  0.00  0.00    -0.488 OA
ATOM     23  C18 UNL     1      62.001  21.611  11.705  0.00  0.00    +0.277 C 
ENDBRANCH   9  22
BRANCH   8  24
ATOM     24  O6  UNL     1      63.475  23.871   9.969  0.00  0.00    -0.501 OA
ATOM     25  H14 UNL     1      63.045  23.809  10.844  0.00  0.00    +0.292 HD
ENDBRANCH   8  24
BRANCH   7  26
ATOM     26  O7  UNL     1      62.410  25.153   7.503  0.00  0.00    -0.488 OA
ATOM     27  C19 UNL     1      61.702  26.233   8.098  0.00  0.00    +0.277 C 
ENDBRANCH   7  26
BRANCH   6  28
ATOM     28  O8  UNL     1      60.808  23.813   5.984  0.00  0.00    -0.503 OA
ATOM     29  H18 UNL     1      60.196  23.192   5.543  0.00  0.00    +0.292 HD
ENDBRANCH   6  28
TORSDOF 7
ENDMDL
MODEL 9
REMARK VINA RESULT:    -6.898      4.345      7.955
REMARK INTER + INTRA:          -9.741
REMARK INTER:                  -9.589
REMARK INTRA:                  -0.153
REMARK UNBOUND:                -0.423
REMARK  Name = data/mahkota_dewa_dn/results/docking/ligands/pdb/Swertianin.pdb
REMARK  11 active torsions:
REMARK  status: ('A' for Active; 'I' for Inactive)
REMARK    1  A    between atoms: C1_1  and  O1_2
REMARK    2  A    between atoms: O1_2  and  C2_3
REMARK    3  A    between atoms: C6_7  and  C9_11
REMARK    4  A    between atoms: C7_8  and  O2_9
REMARK    5  A    between atoms: O2_9  and  C8_10
REMARK    6  A    between atoms: C13_16  and  O8_27
REMARK    7  A    between atoms: C14_17  and  O7_25
REMARK    8  A    between atoms: C15_18  and  O6_24
REMARK    9  A    between atoms: C16_19  and  O5_22
REMARK   10  A    between atoms: O5_22  and  C18_23
REMARK   11  A    between atoms: O7_25  and  C19_26
REMARK                            x       y       z     vdW  Elec       q    Type
REMARK                         _______ _______ _______ _____ _____    ______ ____
ROOT
ATOM      1  C9  UNL     1      63.642  24.908   5.722  0.00  0.00    +0.143 A 
ATOM      2  C10 UNL     1      62.927  25.782   6.438  0.00  0.00    +0.098 A 
ATOM      3  C11 UNL     1      62.606  25.475   7.842  0.00  0.00    +0.197 A 
ATOM      4  O3  UNL     1      61.938  26.276   8.481  0.00  0.00    -0.287 OA
ATOM      5  C12 UNL     1      63.130  24.195   8.378  0.00  0.00    +0.113 A 
ATOM      6  C13 UNL     1      62.898  23.772   9.694  0.00  0.00    +0.177 A 
ATOM      7  C14 UNL     1      63.385  22.541  10.173  0.00  0.00    +0.208 A 
ATOM      8  C15 UNL     1      64.126  21.740   9.306  0.00  0.00    +0.209 A 
ATOM      9  C16 UNL     1      64.397  22.166   7.993  0.00  0.00    +0.209 A 
ATOM     10  C17 UNL     1      63.877  23.378   7.521  0.00  0.00    +0.188 A 
ATOM     11  O4  UNL     1      64.100  23.700   6.205  0.00  0.00    -0.451 OA
ENDROOT
BRANCH   1  16
ATOM     12  C2  UNL     1      64.262  24.424   1.980  0.00  0.00    +0.162 A 
ATOM     13  C3  UNL     1      64.653  25.719   1.631  0.00  0.00    +0.049 A 
ATOM     14  C4  UNL     1      64.702  26.725   2.599  0.00  0.00    +0.004 A 
ATOM     15  C5  UNL     1      64.369  26.444   3.924  0.00  0.00    +0.015 A 
ATOM     16  C6  UNL     1      63.977  25.152   4.306  0.00  0.00    +0.063 A 
ATOM     17  C7  UNL     1      63.898  24.155   3.315  0.00  0.00    +0.172 A 
BRANCH  12  19
ATOM     18  C1  UNL     1      65.419  22.828   0.637  0.00  0.00    +0.277 C 
ATOM     19  O1  UNL     1      64.192  23.370   1.106  0.00  0.00    -0.491 OA
ENDBRANCH  12  19
BRANCH  17  20
ATOM     20  O2  UNL     1      63.515  22.882   3.676  0.00  0.00    -0.491 OA
ATOM     21  C8  UNL     1      62.113  22.708   3.475  0.00  0.00    +0.277 C 
ENDBRANCH  17  20
ENDBRANCH   1  16
BRANCH   9  22
ATOM     22  O5  UNL     1      65.136  21.277   7.242  0.00  0.00    -0.488 OA
ATOM     23  C18 UNL     1      66.530  21.581   7.172  0.00  0.00    +0.277 C 
ENDBRANCH   9  22
BRANCH   8  24
ATOM     24  O6  UNL     1      64.625  20.521   9.687  0.00  0.00    -0.501 OA
ATOM     25  H14 UNL     1      64.830  20.045   8.858  0.00  0.00    +0.292 HD
ENDBRANCH   8  24
BRANCH   7  26
ATOM     26  O7  UNL     1      63.044  22.293  11.480  0.00  0.00    -0.488 OA
ATOM     27  C19 UNL     1      61.982  21.384  11.736  0.00  0.00    +0.277 C 
ENDBRANCH   7  26
BRANCH   6  28
ATOM     28  O8  UNL     1      62.174  24.547  10.566  0.00  0.00    -0.503 OA
ATOM     29  H18 UNL     1      62.107  24.037  11.397  0.00  0.00    +0.292 HD
ENDBRANCH   6  28
TORSDOF 7
ENDMDL
