MODEL 1
REMARK VINA RESULT:    -8.668      0.000      0.000
REMARK INTER + INTRA:         -12.407
REMARK INTER:                 -11.962
REMARK INTRA:                  -0.445
REMARK UNBOUND:                -0.445
REMARK  Name = data/mahkota_dewa_dn/results/docking/ligands/pdb/Lariciresinol.pdb
REMARK  10 active torsions:
REMARK  status: ('A' for Active; 'I' for Inactive)
REMARK    1  A    between atoms: C1_1  and  O1_2
REMARK    2  A    between atoms: O1_2  and  C2_3
REMARK    3  A    between atoms: C3_4  and  O6_25
REMARK    4  A    between atoms: C6_7  and  C8_9
REMARK    5  A    between atoms: C10_12  and  C13_16
REMARK    6  A    between atoms: C11_13  and  C12_14
REMARK    7  A    between atoms: C12_14  and  O3_15
REMARK    8  A    between atoms: C15_18  and  O5_23
REMARK    9  A    between atoms: C16_19  and  O4_22
REMARK   10  A    between atoms: O5_23  and  C19_24
REMARK                            x       y       z     vdW  Elec       q    Type
REMARK                         _______ _______ _______ _____ _____    ______ ____
ROOT
ATOM      1  C8  UNL     1      61.973  21.700   9.553  0.00  0.00    +0.154 C 
ATOM      2  O2  UNL     1      61.633  22.586  10.640  0.00  0.00    -0.371 OA
ATOM      3  C9  UNL     1      62.637  23.610  10.729  0.00  0.00    +0.169 C 
ATOM      4  C10 UNL     1      63.554  23.473   9.515  0.00  0.00    +0.053 C 
ATOM      5  C11 UNL     1      63.444  21.975   9.210  0.00  0.00    +0.057 C 
ENDROOT
BRANCH   1  10
ATOM      6  C2  UNL     1      60.562  18.145   9.235  0.00  0.00    +0.162 A 
ATOM      7  C3  UNL     1      60.950  17.614  10.472  0.00  0.00    +0.158 A 
ATOM      8  C4  UNL     1      61.668  18.378  11.389  0.00  0.00    +0.049 A 
ATOM      9  C5  UNL     1      62.002  19.697  11.077  0.00  0.00    +0.010 A 
ATOM     10  C6  UNL     1      61.619  20.260   9.849  0.00  0.00    -0.015 A 
ATOM     11  C7  UNL     1      60.900  19.469   8.935  0.00  0.00    +0.055 A 
BRANCH   6  13
ATOM     12  C1  UNL     1      59.047  17.907   7.410  0.00  0.00    +0.277 C 
ATOM     13  O1  UNL     1      59.860  17.307   8.409  0.00  0.00    -0.491 OA
ENDBRANCH   6  13
BRANCH   7  14
ATOM     14  O6  UNL     1      60.618  16.321  10.779  0.00  0.00    -0.503 OA
ATOM     15  H22 UNL     1      59.947  16.322  11.478  0.00  0.00    +0.292 HD
ENDBRANCH   7  14
ENDBRANCH   1  10
BRANCH   4  16
ATOM     16  C13 UNL     1      63.191  24.311   8.293  0.00  0.00    -0.038 A 
ATOM     17  C14 UNL     1      63.852  24.029   7.079  0.00  0.00    +0.053 A 
ATOM     18  C15 UNL     1      63.564  24.743   5.910  0.00  0.00    +0.162 A 
ATOM     19  C16 UNL     1      62.596  25.752   5.963  0.00  0.00    +0.158 A 
ATOM     20  C17 UNL     1      61.926  26.042   7.150  0.00  0.00    +0.049 A 
ATOM     21  C18 UNL     1      62.221  25.322   8.308  0.00  0.00    +0.008 A 
BRANCH  19  22
ATOM     22  O4  UNL     1      62.301  26.459   4.827  0.00  0.00    -0.503 OA
ATOM     23  H18 UNL     1      61.724  27.202   5.057  0.00  0.00    +0.292 HD
ENDBRANCH  19  22
BRANCH  18  24
ATOM     24  O5  UNL     1      64.158  24.533   4.694  0.00  0.00    -0.491 OA
ATOM     25  C19 UNL     1      65.364  23.785   4.674  0.00  0.00    +0.277 C 
ENDBRANCH  18  24
ENDBRANCH   4  16
BRANCH   5  26
ATOM     26  C12 UNL     1      64.437  21.167  10.056  0.00  0.00    +0.162 C 
BRANCH  26  27
ATOM     27  O3  UNL     1      65.760  21.632   9.798  0.00  0.00    -0.395 OA
ATOM     28  H14 UNL     1      66.327  21.274  10.503  0.00  0.00    +0.209 HD
ENDBRANCH  26  27
ENDBRANCH   5  26
TORSDOF 8
ENDMDL
MODEL 2
REMARK VINA RESULT:    -7.953      1.836      7.136
REMARK INTER + INTRA:         -11.420
REMARK INTER:                 -10.606
REMARK INTRA:                  -0.814
REMARK UNBOUND:                -0.445
REMARK  Name = data/mahkota_dewa_dn/results/docking/ligands/pdb/Lariciresinol.pdb
REMARK  10 active torsions:
REMARK  status: ('A' for Active; 'I' for Inactive)
REMARK    1  A    between atoms: C1_1  and  O1_2
REMARK    2  A    between atoms: O1_2  and  C2_3
REMARK    3  A    between atoms: C3_4  and  O6_25
REMARK    4  A    between atoms: C6_7  and  C8_9
REMARK    5  A    between atoms: C10_12  and  C13_16
REMARK    6  A    between atoms: C11_13  and  C12_14
REMARK    7  A    between atoms: C12_14  and  O3_15
REMARK    8  A    between atoms: C15_18  and  O5_23
REMARK    9  A    between atoms: C16_19  and  O4_22
REMARK   10  A    between atoms: O5_23  and  C19_24
REMARK                            x       y       z     vdW  Elec       q    Type
REMARK                         _______ _______ _______ _____ _____    ______ ____
ROOT
ATOM      1  C8  UNL     1      63.523  21.531   7.686  0.00  0.00    +0.154 C 
ATOM      2  O2  UNL     1      64.321  21.939   8.817  0.00  0.00    -0.371 OA
ATOM      3  C9  UNL     1      63.446  22.189   9.929  0.00  0.00    +0.169 C 
ATOM      4  C10 UNL     1      62.044  21.730   9.534  0.00  0.00    +0.053 C 
ATOM      5  C11 UNL     1      62.074  21.915   8.012  0.00  0.00    +0.057 C 
ENDROOT
BRANCH   1  10
ATOM      6  C2  UNL     1      63.985  22.234   3.941  0.00  0.00    +0.162 A 
ATOM      7  C3  UNL     1      65.151  23.009   3.977  0.00  0.00    +0.158 A 
ATOM      8  C4  UNL     1      65.773  23.317   5.186  0.00  0.00    +0.049 A 
ATOM      9  C5  UNL     1      65.231  22.841   6.381  0.00  0.00    +0.010 A 
ATOM     10  C6  UNL     1      64.069  22.054   6.376  0.00  0.00    -0.015 A 
ATOM     11  C7  UNL     1      63.454  21.760   5.145  0.00  0.00    +0.055 A 
BRANCH   6  13
ATOM     12  C1  UNL     1      62.780  20.757   2.510  0.00  0.00    +0.277 C 
ATOM     13  O1  UNL     1      63.457  21.991   2.700  0.00  0.00    -0.491 OA
ENDBRANCH   6  13
BRANCH   7  14
ATOM     14  O6  UNL     1      65.684  23.473   2.803  0.00  0.00    -0.503 OA
ATOM     15  H22 UNL     1      66.425  22.905   2.545  0.00  0.00    +0.292 HD
ENDBRANCH   7  14
ENDBRANCH   1  10
BRANCH   4  16
ATOM     16  C13 UNL     1      61.669  20.299   9.906  0.00  0.00    -0.038 A 
ATOM     17  C14 UNL     1      60.912  19.552   8.979  0.00  0.00    +0.053 A 
ATOM     18  C15 UNL     1      60.541  18.228   9.240  0.00  0.00    +0.162 A 
ATOM     19  C16 UNL     1      60.940  17.647  10.449  0.00  0.00    +0.158 A 
ATOM     20  C17 UNL     1      61.694  18.364  11.375  0.00  0.00    +0.049 A 
ATOM     21  C18 UNL     1      62.059  19.683  11.103  0.00  0.00    +0.008 A 
BRANCH  19  22
ATOM     22  O4  UNL     1      60.587  16.351  10.719  0.00  0.00    -0.503 OA
ATOM     23  H18 UNL     1      60.636  15.833   9.902  0.00  0.00    +0.292 HD
ENDBRANCH  19  22
BRANCH  18  24
ATOM     24  O5  UNL     1      59.810  17.435   8.397  0.00  0.00    -0.491 OA
ATOM     25  C19 UNL     1      59.017  18.082   7.412  0.00  0.00    +0.277 C 
ENDBRANCH  18  24
ENDBRANCH   4  16
BRANCH   5  26
ATOM     26  C12 UNL     1      61.715  23.356   7.626  0.00  0.00    +0.162 C 
BRANCH  26  27
ATOM     27  O3  UNL     1      60.614  23.794   8.420  0.00  0.00    -0.395 OA
ATOM     28  H14 UNL     1      60.751  23.434   9.314  0.00  0.00    +0.209 HD
ENDBRANCH  26  27
ENDBRANCH   5  26
TORSDOF 8
ENDMDL
MODEL 3
REMARK VINA RESULT:    -7.932      3.350      7.211
REMARK INTER + INTRA:         -11.391
REMARK INTER:                 -10.727
REMARK INTRA:                  -0.664
REMARK UNBOUND:                -0.445
REMARK  Name = data/mahkota_dewa_dn/results/docking/ligands/pdb/Lariciresinol.pdb
REMARK  10 active torsions:
REMARK  status: ('A' for Active; 'I' for Inactive)
REMARK    1  A    between atoms: C1_1  and  O1_2
REMARK    2  A    between atoms: O1_2  and  C2_3
REMARK    3  A    between atoms: C3_4  and  O6_25
REMARK    4  A    between atoms: C6_7  and  C8_9
REMARK    5  A    between atoms: C10_12  and  C13_16
REMARK    6  A    between atoms: C11_13  and  C12_14
REMARK    7  A    between atoms: C12_14  and  O3_15
REMARK    8  A    between atoms: C15_18  and  O5_23
REMARK    9  A    between atoms: C16_19  and  O4_22
REMARK   10  A    between atoms: O5_23  and  C19_24
REMARK                            x       y       z     vdW  Elec       q    Type
REMARK                         _______ _______ _______ _____ _____    ______ ____
ROOT
ATOM      1  C8  UNL     1      63.700  24.404   7.852  0.00  0.00    +0.154 C 
ATOM      2  O2  UNL     1      63.431  25.512   8.737  0.00  0.00    -0.371 OA
ATOM      3  C9  UNL     1      62.609  25.045   9.820  0.00  0.00    +0.169 C 
ATOM      4  C10 UNL     1      62.515  23.524   9.714  0.00  0.00    +0.053 C 
ATOM      5  C11 UNL     1      62.687  23.307   8.206  0.00  0.00    +0.057 C 
ENDROOT
BRANCH   1  10
ATOM      6  C2  UNL     1      64.282  24.379   4.058  0.00  0.00    +0.162 A 
ATOM      7  C3  UNL     1      63.845  25.669   3.733  0.00  0.00    +0.158 A 
ATOM      8  C4  UNL     1      63.354  26.530   4.712  0.00  0.00    +0.049 A 
ATOM      9  C5  UNL     1      63.303  26.107   6.041  0.00  0.00    +0.010 A 
ATOM     10  C6  UNL     1      63.743  24.823   6.399  0.00  0.00    -0.015 A 
ATOM     11  C7  UNL     1      64.230  23.967   5.395  0.00  0.00    +0.055 A 
BRANCH   6  13
ATOM     12  C1  UNL     1      66.128  23.288   3.018  0.00  0.00    +0.277 C 
ATOM     13  O1  UNL     1      64.747  23.615   3.020  0.00  0.00    -0.491 OA
ENDBRANCH   6  13
BRANCH   7  14
ATOM     14  O6  UNL     1      63.899  26.085   2.429  0.00  0.00    -0.503 OA
ATOM     15  H22 UNL     1      63.148  25.710   1.945  0.00  0.00    +0.292 HD
ENDBRANCH   7  14
ENDBRANCH   1  10
BRANCH   4  16
ATOM     16  C13 UNL     1      63.545  22.724  10.506  0.00  0.00    -0.038 A 
ATOM     17  C14 UNL     1      64.442  21.908   9.787  0.00  0.00    +0.053 A 
ATOM     18  C15 UNL     1      65.425  21.155  10.439  0.00  0.00    +0.162 A 
ATOM     19  C16 UNL     1      65.508  21.228  11.834  0.00  0.00    +0.158 A 
ATOM     20  C17 UNL     1      64.637  22.034  12.563  0.00  0.00    +0.049 A 
ATOM     21  C18 UNL     1      63.661  22.781  11.901  0.00  0.00    +0.008 A 
BRANCH  19  22
ATOM     22  O4  UNL     1      66.466  20.498  12.488  0.00  0.00    -0.503 OA
ATOM     23  H18 UNL     1      66.370  19.564  12.249  0.00  0.00    +0.292 HD
ENDBRANCH  19  22
BRANCH  18  24
ATOM     24  O5  UNL     1      66.333  20.339   9.818  0.00  0.00    -0.491 OA
ATOM     25  C19 UNL     1      66.774  20.718   8.522  0.00  0.00    +0.277 C 
ENDBRANCH  18  24
ENDBRANCH   4  16
BRANCH   5  26
ATOM     26  C12 UNL     1      61.346  23.444   7.474  0.00  0.00    +0.162 C 
BRANCH  26  27
ATOM     27  O3  UNL     1      60.300  22.962   8.316  0.00  0.00    -0.395 OA
ATOM     28  H14 UNL     1      59.561  22.715   7.733  0.00  0.00    +0.209 HD
ENDBRANCH  26  27
ENDBRANCH   5  26
TORSDOF 8
ENDMDL
MODEL 4
REMARK VINA RESULT:    -7.753      1.775      7.500
REMARK INTER + INTRA:         -11.145
REMARK INTER:                 -10.606
REMARK INTRA:                  -0.538
REMARK UNBOUND:                -0.445
REMARK  Name = data/mahkota_dewa_dn/results/docking/ligands/pdb/Lariciresinol.pdb
REMARK  10 active torsions:
REMARK  status: ('A' for Active; 'I' for Inactive)
REMARK    1  A    between atoms: C1_1  and  O1_2
REMARK    2  A    between atoms: O1_2  and  C2_3
REMARK    3  A    between atoms: C3_4  and  O6_25
REMARK    4  A    between atoms: C6_7  and  C8_9
REMARK    5  A    between atoms: C10_12  and  C13_16
REMARK    6  A    between atoms: C11_13  and  C12_14
REMARK    7  A    between atoms: C12_14  and  O3_15
REMARK    8  A    between atoms: C15_18  and  O5_23
REMARK    9  A    between atoms: C16_19  and  O4_22
REMARK   10  A    between atoms: O5_23  and  C19_24
REMARK                            x       y       z     vdW  Elec       q    Type
REMARK                         _______ _______ _______ _____ _____    ______ ____
ROOT
ATOM      1  C8  UNL     1      63.116  21.580   7.527  0.00  0.00    +0.154 C 
ATOM      2  O2  UNL     1      64.069  21.942   8.548  0.00  0.00    -0.371 OA
ATOM      3  C9  UNL     1      63.364  22.148   9.782  0.00  0.00    +0.169 C 
ATOM      4  C10 UNL     1      61.916  21.706   9.574  0.00  0.00    +0.053 C 
ATOM      5  C11 UNL     1      61.730  21.952   8.072  0.00  0.00    +0.057 C 
ENDROOT
BRANCH   1  10
ATOM      6  C2  UNL     1      64.906  23.512   4.735  0.00  0.00    +0.162 A 
ATOM      7  C3  UNL     1      64.058  23.229   3.657  0.00  0.00    +0.158 A 
ATOM      8  C4  UNL     1      62.937  22.417   3.816  0.00  0.00    +0.049 A 
ATOM      9  C5  UNL     1      62.647  21.881   5.072  0.00  0.00    +0.010 A 
ATOM     10  C6  UNL     1      63.473  22.154   6.174  0.00  0.00    -0.015 A 
ATOM     11  C7  UNL     1      64.603  22.971   5.989  0.00  0.00    +0.055 A 
BRANCH   6  13
ATOM     12  C1  UNL     1      67.159  23.700   3.981  0.00  0.00    +0.277 C 
ATOM     13  O1  UNL     1      65.978  24.321   4.467  0.00  0.00    -0.491 OA
ENDBRANCH   6  13
BRANCH   7  14
ATOM     14  O6  UNL     1      64.341  23.759   2.425  0.00  0.00    -0.503 OA
ATOM     15  H22 UNL     1      63.886  23.241   1.744  0.00  0.00    +0.292 HD
ENDBRANCH   7  14
ENDBRANCH   1  10
BRANCH   4  16
ATOM     16  C13 UNL     1      61.589  20.262   9.939  0.00  0.00    -0.038 A 
ATOM     17  C14 UNL     1      60.868  19.491   9.003  0.00  0.00    +0.053 A 
ATOM     18  C15 UNL     1      60.541  18.155   9.258  0.00  0.00    +0.162 A 
ATOM     19  C16 UNL     1      60.949  17.585  10.469  0.00  0.00    +0.158 A 
ATOM     20  C17 UNL     1      61.669  18.326  11.404  0.00  0.00    +0.049 A 
ATOM     21  C18 UNL     1      61.989  19.658  11.139  0.00  0.00    +0.008 A 
BRANCH  19  22
ATOM     22  O4  UNL     1      60.639  16.277  10.733  0.00  0.00    -0.503 OA
ATOM     23  H18 UNL     1      59.984  16.245  11.446  0.00  0.00    +0.292 HD
ENDBRANCH  19  22
BRANCH  18  24
ATOM     24  O5  UNL     1      59.846  17.338   8.406  0.00  0.00    -0.491 OA
ATOM     25  C19 UNL     1      58.896  17.948   7.544  0.00  0.00    +0.277 C 
ENDBRANCH  18  24
ENDBRANCH   4  16
BRANCH   5  26
ATOM     26  C12 UNL     1      61.330  23.408   7.798  0.00  0.00    +0.162 C 
BRANCH  26  27
ATOM     27  O3  UNL     1      59.912  23.531   7.897  0.00  0.00    -0.395 OA
ATOM     28  H14 UNL     1      59.734  24.173   8.606  0.00  0.00    +0.209 HD
ENDBRANCH  26  27
ENDBRANCH   5  26
TORSDOF 8
ENDMDL
MODEL 5
REMARK VINA RESULT:    -7.524      2.302      7.256
REMARK INTER + INTRA:         -10.828
REMARK INTER:                 -10.483
REMARK INTRA:                  -0.345
REMARK UNBOUND:                -0.445
REMARK  Name = data/mahkota_dewa_dn/results/docking/ligands/pdb/Lariciresinol.pdb
REMARK  10 active torsions:
REMARK  status: ('A' for Active; 'I' for Inactive)
REMARK    1  A    between atoms: C1_1  and  O1_2
REMARK    2  A    between atoms: O1_2  and  C2_3
REMARK    3  A    between atoms: C3_4  and  O6_25
REMARK    4  A    between atoms: C6_7  and  C8_9
REMARK    5  A    between atoms: C10_12  and  C13_16
REMARK    6  A    between atoms: C11_13  and  C12_14
REMARK    7  A    between atoms: C12_14  and  O3_15
REMARK    8  A    between atoms: C15_18  and  O5_23
REMARK    9  A    between atoms: C16_19  and  O4_22
REMARK   10  A    between atoms: O5_23  and  C19_24
REMARK                            x       y       z     vdW  Elec       q    Type
REMARK                         _______ _______ _______ _____ _____    ______ ____
ROOT
ATOM      1  C8  UNL     1      63.868  20.800   8.283  0.00  0.00    +0.154 C 
ATOM      2  O2  UNL     1      64.161  20.678   9.690  0.00  0.00    -0.371 OA
ATOM      3  C9  UNL     1      62.958  20.932  10.434  0.00  0.00    +0.169 C 
ATOM      4  C10 UNL     1      61.805  21.031   9.437  0.00  0.00    +0.053 C 
ATOM      5  C11 UNL     1      62.523  21.533   8.179  0.00  0.00    +0.057 C 
ENDROOT
BRANCH   1  10
ATOM      6  C2  UNL     1      67.398  21.859   7.207  0.00  0.00    +0.162 A 
ATOM      7  C3  UNL     1      67.094  22.592   6.053  0.00  0.00    +0.158 A 
ATOM      8  C4  UNL     1      65.779  22.731   5.614  0.00  0.00    +0.049 A 
ATOM      9  C5  UNL     1      64.743  22.139   6.338  0.00  0.00    +0.010 A 
ATOM     10  C6  UNL     1      65.015  21.407   7.505  0.00  0.00    -0.015 A 
ATOM     11  C7  UNL     1      66.351  21.273   7.927  0.00  0.00    +0.055 A 
BRANCH   6  13
ATOM     12  C1  UNL     1      69.038  21.740   8.932  0.00  0.00    +0.277 C 
ATOM     13  O1  UNL     1      68.722  21.786   7.548  0.00  0.00    -0.491 OA
ENDBRANCH   6  13
BRANCH   7  14
ATOM     14  O6  UNL     1      68.111  23.176   5.344  0.00  0.00    -0.503 OA
ATOM     15  H22 UNL     1      68.938  22.704   5.528  0.00  0.00    +0.292 HD
ENDBRANCH   7  14
ENDBRANCH   1  10
BRANCH   4  16
ATOM     16  C13 UNL     1      61.039  19.742   9.155  0.00  0.00    -0.038 A 
ATOM     17  C14 UNL     1      60.192  19.710   8.028  0.00  0.00    +0.053 A 
ATOM     18  C15 UNL     1      59.467  18.560   7.694  0.00  0.00    +0.162 A 
ATOM     19  C16 UNL     1      59.600  17.427   8.503  0.00  0.00    +0.158 A 
ATOM     20  C17 UNL     1      60.437  17.434   9.617  0.00  0.00    +0.049 A 
ATOM     21  C18 UNL     1      61.155  18.586   9.940  0.00  0.00    +0.008 A 
BRANCH  19  22
ATOM     22  O4  UNL     1      58.898  16.293   8.189  0.00  0.00    -0.503 OA
ATOM     23  H18 UNL     1      59.184  15.572   8.770  0.00  0.00    +0.292 HD
ENDBRANCH  19  22
BRANCH  18  24
ATOM     24  O5  UNL     1      58.625  18.445   6.620  0.00  0.00    -0.491 OA
ATOM     25  C19 UNL     1      58.928  19.214   5.465  0.00  0.00    +0.277 C 
ENDBRANCH  18  24
ENDBRANCH   4  16
BRANCH   5  26
ATOM     26  C12 UNL     1      62.650  23.062   8.191  0.00  0.00    +0.162 C 
BRANCH  26  27
ATOM     27  O3  UNL     1      61.477  23.625   8.775  0.00  0.00    -0.395 OA
ATOM     28  H14 UNL     1      61.281  23.102   9.572  0.00  0.00    +0.209 HD
ENDBRANCH  26  27
ENDBRANCH   5  26
TORSDOF 8
ENDMDL
MODEL 6
REMARK VINA RESULT:    -7.477      1.983      7.215
REMARK INTER + INTRA:         -10.763
REMARK INTER:                 -10.626
REMARK INTRA:                  -0.137
REMARK UNBOUND:                -0.445
REMARK  Name = data/mahkota_dewa_dn/results/docking/ligands/pdb/Lariciresinol.pdb
REMARK  10 active torsions:
REMARK  status: ('A' for Active; 'I' for Inactive)
REMARK    1  A    between atoms: C1_1  and  O1_2
REMARK    2  A    between atoms: O1_2  and  C2_3
REMARK    3  A    between atoms: C3_4  and  O6_25
REMARK    4  A    between atoms: C6_7  and  C8_9
REMARK    5  A    between atoms: C10_12  and  C13_16
REMARK    6  A    between atoms: C11_13  and  C12_14
REMARK    7  A    between atoms: C12_14  and  O3_15
REMARK    8  A    between atoms: C15_18  and  O5_23
REMARK    9  A    between atoms: C16_19  and  O4_22
REMARK   10  A    between atoms: O5_23  and  C19_24
REMARK                            x       y       z     vdW  Elec       q    Type
REMARK                         _______ _______ _______ _____ _____    ______ ____
ROOT
ATOM      1  C8  UNL     1      64.295  20.945   8.783  0.00  0.00    +0.154 C 
ATOM      2  O2  UNL     1      64.598  21.283  10.153  0.00  0.00    -0.371 OA
ATOM      3  C9  UNL     1      63.368  21.576  10.836  0.00  0.00    +0.169 C 
ATOM      4  C10 UNL     1      62.216  21.219   9.898  0.00  0.00    +0.053 C 
ATOM      5  C11 UNL     1      62.860  21.423   8.522  0.00  0.00    +0.057 C 
ENDROOT
BRANCH   1  10
ATOM      6  C2  UNL     1      65.990  22.494   5.707  0.00  0.00    +0.162 A 
ATOM      7  C3  UNL     1      67.336  22.316   6.051  0.00  0.00    +0.158 A 
ATOM      8  C4  UNL     1      67.697  21.724   7.260  0.00  0.00    +0.049 A 
ATOM      9  C5  UNL     1      66.704  21.293   8.140  0.00  0.00    +0.010 A 
ATOM     10  C6  UNL     1      65.347  21.448   7.819  0.00  0.00    -0.015 A 
ATOM     11  C7  UNL     1      65.004  22.054   6.596  0.00  0.00    +0.055 A 
BRANCH   6  13
ATOM     12  C1  UNL     1      64.463  23.659   4.296  0.00  0.00    +0.277 C 
ATOM     13  O1  UNL     1      65.746  23.086   4.495  0.00  0.00    -0.491 OA
ENDBRANCH   6  13
BRANCH   7  14
ATOM     14  O6  UNL     1      68.309  22.737   5.184  0.00  0.00    -0.503 OA
ATOM     15  H22 UNL     1      68.441  22.061   4.501  0.00  0.00    +0.292 HD
ENDBRANCH   7  14
ENDBRANCH   1  10
BRANCH   4  16
ATOM     16  C13 UNL     1      61.642  19.812  10.034  0.00  0.00    -0.038 A 
ATOM     17  C14 UNL     1      60.929  19.281   8.939  0.00  0.00    +0.053 A 
ATOM     18  C15 UNL     1      60.385  17.992   8.980  0.00  0.00    +0.162 A 
ATOM     19  C16 UNL     1      60.566  17.226  10.137  0.00  0.00    +0.158 A 
ATOM     20  C17 UNL     1      61.274  17.728  11.227  0.00  0.00    +0.049 A 
ATOM     21  C18 UNL     1      61.812  19.014  11.174  0.00  0.00    +0.008 A 
BRANCH  19  22
ATOM     22  O4  UNL     1      60.041  15.961  10.193  0.00  0.00    -0.503 OA
ATOM     23  H18 UNL     1      59.852  15.657   9.293  0.00  0.00    +0.292 HD
ENDBRANCH  19  22
BRANCH  18  24
ATOM     24  O5  UNL     1      59.680  17.402   7.965  0.00  0.00    -0.491 OA
ATOM     25  C19 UNL     1      58.830  18.234   7.189  0.00  0.00    +0.277 C 
ENDBRANCH  18  24
ENDBRANCH   4  16
BRANCH   5  26
ATOM     26  C12 UNL     1      62.767  22.890   8.083  0.00  0.00    +0.162 C 
BRANCH  26  27
ATOM     27  O3  UNL     1      61.685  23.037   7.166  0.00  0.00    -0.395 OA
ATOM     28  H14 UNL     1      61.297  22.153   7.044  0.00  0.00    +0.209 HD
ENDBRANCH  26  27
ENDBRANCH   5  26
TORSDOF 8
ENDMDL
MODEL 7
REMARK VINA RESULT:    -7.455      2.991      4.880
REMARK INTER + INTRA:         -10.733
REMARK INTER:                  -9.861
REMARK INTRA:                  -0.872
REMARK UNBOUND:                -0.445
REMARK  Name = data/mahkota_dewa_dn/results/docking/ligands/pdb/Lariciresinol.pdb
REMARK  10 active torsions:
REMARK  status: ('A' for Active; 'I' for Inactive)
REMARK    1  A    between atoms: C1_1  and  O1_2
REMARK    2  A    between atoms: O1_2  and  C2_3
REMARK    3  A    between atoms: C3_4  and  O6_25
REMARK    4  A    between atoms: C6_7  and  C8_9
REMARK    5  A    between atoms: C10_12  and  C13_16
REMARK    6  A    between atoms: C11_13  and  C12_14
REMARK    7  A    between atoms: C12_14  and  O3_15
REMARK    8  A    between atoms: C15_18  and  O5_23
REMARK    9  A    between atoms: C16_19  and  O4_22
REMARK   10  A    between atoms: O5_23  and  C19_24
REMARK                            x       y       z     vdW  Elec       q    Type
REMARK                         _______ _______ _______ _____ _____    ______ ____
ROOT
ATOM      1  C8  UNL     1      62.136  22.039   8.551  0.00  0.00    +0.154 C 
ATOM      2  O2  UNL     1      60.713  21.965   8.779  0.00  0.00    -0.371 OA
ATOM      3  C9  UNL     1      60.049  22.786   7.804  0.00  0.00    +0.169 C 
ATOM      4  C10 UNL     1      61.095  23.248   6.791  0.00  0.00    +0.053 C 
ATOM      5  C11 UNL     1      62.370  23.253   7.642  0.00  0.00    +0.057 C 
ENDROOT
BRANCH   1  10
ATOM      6  C2  UNL     1      64.995  21.588  11.072  0.00  0.00    +0.162 A 
ATOM      7  C3  UNL     1      64.334  21.934  12.258  0.00  0.00    +0.158 A 
ATOM      8  C4  UNL     1      62.996  22.323  12.249  0.00  0.00    +0.049 A 
ATOM      9  C5  UNL     1      62.297  22.363  11.042  0.00  0.00    +0.010 A 
ATOM     10  C6  UNL     1      62.929  22.012   9.839  0.00  0.00    -0.015 A 
ATOM     11  C7  UNL     1      64.282  21.627   9.869  0.00  0.00    +0.055 A 
BRANCH   6  13
ATOM     12  C1  UNL     1      67.004  20.880  10.005  0.00  0.00    +0.277 C 
ATOM     13  O1  UNL     1      66.309  21.219  11.195  0.00  0.00    -0.491 OA
ENDBRANCH   6  13
BRANCH   7  14
ATOM     14  O6  UNL     1      65.021  21.891  13.443  0.00  0.00    -0.503 OA
ATOM     15  H22 UNL     1      65.179  22.797  13.751  0.00  0.00    +0.292 HD
ENDBRANCH   7  14
ENDBRANCH   1  10
BRANCH   4  16
ATOM     16  C13 UNL     1      61.266  22.380   5.549  0.00  0.00    -0.038 A 
ATOM     17  C14 UNL     1      62.479  22.479   4.836  0.00  0.00    +0.053 A 
ATOM     18  C15 UNL     1      62.719  21.705   3.694  0.00  0.00    +0.162 A 
ATOM     19  C16 UNL     1      61.725  20.817   3.267  0.00  0.00    +0.158 A 
ATOM     20  C17 UNL     1      60.522  20.698   3.961  0.00  0.00    +0.049 A 
ATOM     21  C18 UNL     1      60.296  21.475   5.098  0.00  0.00    +0.008 A 
BRANCH  19  22
ATOM     22  O4  UNL     1      61.944  20.051   2.153  0.00  0.00    -0.503 OA
ATOM     23  H18 UNL     1      61.487  20.452   1.398  0.00  0.00    +0.292 HD
ENDBRANCH  19  22
BRANCH  18  24
ATOM     24  O5  UNL     1      63.865  21.740   2.947  0.00  0.00    -0.491 OA
ATOM     25  C19 UNL     1      64.844  22.708   3.294  0.00  0.00    +0.277 C 
ENDBRANCH  18  24
ENDBRANCH   4  16
BRANCH   5  26
ATOM     26  C12 UNL     1      62.518  24.576   8.404  0.00  0.00    +0.162 C 
BRANCH  26  27
ATOM     27  O3  UNL     1      63.878  25.003   8.344  0.00  0.00    -0.395 OA
ATOM     28  H14 UNL     1      63.890  25.831   7.833  0.00  0.00    +0.209 HD
ENDBRANCH  26  27
ENDBRANCH   5  26
TORSDOF 8
ENDMDL
MODEL 8
REMARK VINA RESULT:    -7.293      3.328      7.454
REMARK INTER + INTRA:         -10.510
REMARK INTER:                  -9.919
REMARK INTRA:                  -0.591
REMARK UNBOUND:                -0.445
REMARK  Name = data/mahkota_dewa_dn/results/docking/ligands/pdb/Lariciresinol.pdb
REMARK  10 active torsions:
REMARK  status: ('A' for Active; 'I' for Inactive)
REMARK    1  A    between atoms: C1_1  and  O1_2
REMARK    2  A    between atoms: O1_2  and  C2_3
REMARK    3  A    between atoms: C3_4  and  O6_25
REMARK    4  A    between atoms: C6_7  and  C8_9
REMARK    5  A    between atoms: C10_12  and  C13_16
REMARK    6  A    between atoms: C11_13  and  C12_14
REMARK    7  A    between atoms: C12_14  and  O3_15
REMARK    8  A    between atoms: C15_18  and  O5_23
REMARK    9  A    between atoms: C16_19  and  O4_22
REMARK   10  A    between atoms: O5_23  and  C19_24
REMARK                            x       y       z     vdW  Elec       q    Type
REMARK                         _______ _______ _______ _____ _____    ______ ____
ROOT
ATOM      1  C8  UNL     1      64.587  23.645   6.889  0.00  0.00    +0.154 C 
ATOM      2  O2  UNL     1      63.799  24.843   7.059  0.00  0.00    -0.371 OA
ATOM      3  C9  UNL     1      62.561  24.491   7.696  0.00  0.00    +0.169 C 
ATOM      4  C10 UNL     1      62.654  23.027   8.124  0.00  0.00    +0.053 C 
ATOM      5  C11 UNL     1      63.630  22.462   7.085  0.00  0.00    +0.057 C 
ENDROOT
BRANCH   1  10
ATOM      6  C2  UNL     1      65.691  24.367   3.285  0.00  0.00    +0.162 A 
ATOM      7  C3  UNL     1      66.855  23.590   3.223  0.00  0.00    +0.158 A 
ATOM      8  C4  UNL     1      67.291  22.859   4.326  0.00  0.00    +0.049 A 
ATOM      9  C5  UNL     1      66.554  22.892   5.511  0.00  0.00    +0.010 A 
ATOM     10  C6  UNL     1      65.378  23.653   5.600  0.00  0.00    -0.015 A 
ATOM     11  C7  UNL     1      64.959  24.389   4.477  0.00  0.00    +0.055 A 
BRANCH   6  13
ATOM     12  C1  UNL     1      64.925  26.392   2.287  0.00  0.00    +0.277 C 
ATOM     13  O1  UNL     1      65.353  25.046   2.143  0.00  0.00    -0.491 OA
ENDBRANCH   6  13
BRANCH   7  14
ATOM     14  O6  UNL     1      67.576  23.556   2.058  0.00  0.00    -0.503 OA
ATOM     15  H22 UNL     1      67.026  23.894   1.335  0.00  0.00    +0.292 HD
ENDBRANCH   7  14
ENDBRANCH   1  10
BRANCH   4  16
ATOM     16  C13 UNL     1      63.148  22.765   9.543  0.00  0.00    -0.038 A 
ATOM     17  C14 UNL     1      64.237  21.884   9.710  0.00  0.00    +0.053 A 
ATOM     18  C15 UNL     1      64.758  21.603  10.978  0.00  0.00    +0.162 A 
ATOM     19  C16 UNL     1      64.178  22.220  12.092  0.00  0.00    +0.158 A 
ATOM     20  C17 UNL     1      63.106  23.099  11.948  0.00  0.00    +0.049 A 
ATOM     21  C18 UNL     1      62.596  23.371  10.679  0.00  0.00    +0.008 A 
BRANCH  19  22
ATOM     22  O4  UNL     1      64.677  21.957  13.340  0.00  0.00    -0.503 OA
ATOM     23  H18 UNL     1      65.543  22.381  13.431  0.00  0.00    +0.292 HD
ENDBRANCH  19  22
BRANCH  18  24
ATOM     24  O5  UNL     1      65.811  20.763  11.228  0.00  0.00    -0.491 OA
ATOM     25  C19 UNL     1      66.727  20.528  10.169  0.00  0.00    +0.277 C 
ENDBRANCH  18  24
ENDBRANCH   4  16
BRANCH   5  26
ATOM     26  C12 UNL     1      62.892  22.046   5.806  0.00  0.00    +0.162 C 
BRANCH  26  27
ATOM     27  O3  UNL     1      61.541  21.721   6.128  0.00  0.00    -0.395 OA
ATOM     28  H14 UNL     1      61.380  22.051   7.029  0.00  0.00    +0.209 HD
ENDBRANCH  26  27
ENDBRANCH   5  26
TORSDOF 8
ENDMDL
MODEL 9
REMARK VINA RESULT:    -7.277      2.645      6.284
REMARK INTER + INTRA:         -10.488
REMARK INTER:                  -9.676
REMARK INTRA:                  -0.811
REMARK UNBOUND:                -0.445
REMARK  Name = data/mahkota_dewa_dn/results/docking/ligands/pdb/Lariciresinol.pdb
REMARK  10 active torsions:
REMARK  status: ('A' for Active; 'I' for Inactive)
REMARK    1  A    between atoms: C1_1  and  O1_2
REMARK    2  A    between atoms: O1_2  and  C2_3
REMARK    3  A    between atoms: C3_4  and  O6_25
REMARK    4  A    between atoms: C6_7  and  C8_9
REMARK    5  A    between atoms: C10_12  and  C13_16
REMARK    6  A    between atoms: C11_13  and  C12_14
REMARK    7  A    between atoms: C12_14  and  O3_15
REMARK    8  A    between atoms: C15_18  and  O5_23
REMARK    9  A    between atoms: C16_19  and  O4_22
REMARK   10  A    between atoms: O5_23  and  C19_24
REMARK                            x       y       z     vdW  Elec       q    Type
REMARK                         _______ _______ _______ _____ _____    ______ ____
ROOT
ATOM      1  C8  UNL     1      63.615  21.088   8.615  0.00  0.00    +0.154 C 
ATOM      2  O2  UNL     1      63.057  20.562   9.838  0.00  0.00    -0.371 OA
ATOM      3  C9  UNL     1      61.814  21.232  10.101  0.00  0.00    +0.169 C 
ATOM      4  C10 UNL     1      61.476  22.087   8.881  0.00  0.00    +0.053 C 
ATOM      5  C11 UNL     1      62.870  22.398   8.324  0.00  0.00    +0.057 C 
ENDROOT
BRANCH   1  10
ATOM      6  C2  UNL     1      67.281  21.536   7.571  0.00  0.00    +0.162 A 
ATOM      7  C3  UNL     1      67.918  21.287   8.793  0.00  0.00    +0.158 A 
ATOM      8  C4  UNL     1      67.183  20.997   9.941  0.00  0.00    +0.049 A 
ATOM      9  C5  UNL     1      65.790  20.944   9.874  0.00  0.00    +0.010 A 
ATOM     10  C6  UNL     1      65.124  21.179   8.661  0.00  0.00    -0.015 A 
ATOM     11  C7  UNL     1      65.884  21.476   7.515  0.00  0.00    +0.055 A 
BRANCH   6  13
ATOM     12  C1  UNL     1      67.785  22.951   5.720  0.00  0.00    +0.277 C 
ATOM     13  O1  UNL     1      68.098  21.810   6.506  0.00  0.00    -0.491 OA
ENDBRANCH   6  13
BRANCH   7  14
ATOM     14  O6  UNL     1      69.286  21.335   8.857  0.00  0.00    -0.503 OA
ATOM     15  H22 UNL     1      69.549  21.756   9.690  0.00  0.00    +0.292 HD
ENDBRANCH   7  14
ENDBRANCH   1  10
BRANCH   4  16
ATOM     16  C13 UNL     1      60.592  21.437   7.821  0.00  0.00    -0.038 A 
ATOM     17  C14 UNL     1      60.187  20.102   8.027  0.00  0.00    +0.053 A 
ATOM     18  C15 UNL     1      59.364  19.440   7.108  0.00  0.00    +0.162 A 
ATOM     19  C16 UNL     1      58.941  20.134   5.968  0.00  0.00    +0.158 A 
ATOM     20  C17 UNL     1      59.323  21.455   5.749  0.00  0.00    +0.049 A 
ATOM     21  C18 UNL     1      60.143  22.104   6.673  0.00  0.00    +0.008 A 
BRANCH  19  22
ATOM     22  O4  UNL     1      58.134  19.501   5.060  0.00  0.00    -0.503 OA
ATOM     23  H18 UNL     1      57.512  18.929   5.534  0.00  0.00    +0.292 HD
ENDBRANCH  19  22
BRANCH  18  24
ATOM     24  O5  UNL     1      58.926  18.149   7.232  0.00  0.00    -0.491 OA
ATOM     25  C19 UNL     1      59.558  17.333   8.207  0.00  0.00    +0.277 C 
ENDBRANCH  18  24
ENDBRANCH   4  16
BRANCH   5  26
ATOM     26  C12 UNL     1      63.479  23.623   9.018  0.00  0.00    +0.162 C 
BRANCH  26  27
ATOM     27  O3  UNL     1      64.004  24.509   8.032  0.00  0.00    -0.395 OA
ATOM     28  H14 UNL     1      63.243  24.958   7.624  0.00  0.00    +0.209 HD
ENDBRANCH  26  27
ENDBRANCH   5  26
TORSDOF 8
ENDMDL
