MODEL 1
REMARK VINA RESULT:    -8.536      0.000      0.000
REMARK INTER + INTRA:         -10.053
REMARK INTER:                 -10.034
REMARK INTRA:                  -0.019
REMARK UNBOUND:                -0.019
REMARK  Name = data/mahkota_dewa_dn/results/docking/ligands/pdb/Kaempferol.pdb
REMARK  5 active torsions:
REMARK  status: ('A' for Active; 'I' for Inactive)
REMARK    1  A    between atoms: C3_3  and  O6_21
REMARK    2  A    between atoms: C6_6  and  C7_7
REMARK    3  A    between atoms: C8_8  and  O5_20
REMARK    4  A    between atoms: C11_12  and  O4_19
REMARK    5  A    between atoms: C13_14  and  O3_18
REMARK                            x       y       z     vdW  Elec       q    Type
REMARK                         _______ _______ _______ _____ _____    ______ ____
ROOT
ATOM      1  C7  UNL     1      62.132  21.338   9.365  0.00  0.00    +0.181 A 
ATOM      2  C8  UNL     1      62.081  22.413  10.173  0.00  0.00    +0.208 A 
ATOM      3  C9  UNL     1      62.571  23.712   9.654  0.00  0.00    +0.238 A 
ATOM      4  O1  UNL     1      62.536  24.718  10.359  0.00  0.00    -0.283 OA
ATOM      5  C10 UNL     1      63.090  23.742   8.285  0.00  0.00    +0.109 A 
ATOM      6  C11 UNL     1      63.583  24.916   7.710  0.00  0.00    +0.135 A 
ATOM      7  C12 UNL     1      64.068  24.900   6.405  0.00  0.00    +0.091 A 
ATOM      8  C13 UNL     1      64.058  23.710   5.684  0.00  0.00    +0.124 A 
ATOM      9  C14 UNL     1      63.569  22.534   6.247  0.00  0.00    +0.092 A 
ATOM     10  C15 UNL     1      63.083  22.555   7.555  0.00  0.00    +0.147 A 
ATOM     11  O2  UNL     1      62.611  21.370   8.061  0.00  0.00    -0.451 OA
ENDROOT
BRANCH   1  17
ATOM     12  C1  UNL     1      60.861  19.245   8.894  0.00  0.00    +0.015 A 
ATOM     13  C2  UNL     1      60.424  17.965   9.246  0.00  0.00    +0.046 A 
ATOM     14  C3  UNL     1      60.787  17.427  10.474  0.00  0.00    +0.117 A 
ATOM     15  C4  UNL     1      61.585  18.147  11.357  0.00  0.00    +0.046 A 
ATOM     16  C5  UNL     1      62.022  19.428  11.002  0.00  0.00    +0.015 A 
ATOM     17  C6  UNL     1      61.660  19.997   9.771  0.00  0.00    +0.021 A 
BRANCH  14  18
ATOM     18  O6  UNL     1      60.339  16.177  10.778  0.00  0.00    -0.507 OA
ATOM     19  H10 UNL     1      59.741  16.239  11.541  0.00  0.00    +0.292 HD
ENDBRANCH  14  18
ENDBRANCH   1  17
BRANCH   8  20
ATOM     20  O3  UNL     1      64.543  23.737   4.410  0.00  0.00    -0.507 OA
ATOM     21  H7  UNL     1      65.227  23.055   4.311  0.00  0.00    +0.292 HD
ENDBRANCH   8  20
BRANCH   6  22
ATOM     22  O4  UNL     1      63.617  26.113   8.371  0.00  0.00    -0.506 OA
ATOM     23  H8  UNL     1      64.107  26.763   7.820  0.00  0.00    +0.292 HD
ENDBRANCH   6  22
BRANCH   2  24
ATOM     24  O5  UNL     1      61.581  22.400  11.462  0.00  0.00    -0.501 OA
ATOM     25  H9  UNL     1      60.953  21.648  11.490  0.00  0.00    +0.292 HD
ENDBRANCH   2  24
TORSDOF 5
ENDMDL
MODEL 2
REMARK VINA RESULT:    -8.515      3.459      5.814
REMARK INTER + INTRA:         -10.027
REMARK INTER:                  -9.734
REMARK INTRA:                  -0.292
REMARK UNBOUND:                -0.019
REMARK  Name = data/mahkota_dewa_dn/results/docking/ligands/pdb/Kaempferol.pdb
REMARK  5 active torsions:
REMARK  status: ('A' for Active; 'I' for Inactive)
REMARK    1  A    between atoms: C3_3  and  O6_21
REMARK    2  A    between atoms: C6_6  and  C7_7
REMARK    3  A    between atoms: C8_8  and  O5_20
REMARK    4  A    between atoms: C11_12  and  O4_19
REMARK    5  A    between atoms: C13_14  and  O3_18
REMARK                            x       y       z     vdW  Elec       q    Type
REMARK                         _______ _______ _______ _____ _____    ______ ____
ROOT
ATOM      1  C7  UNL     1      61.569  20.062   9.619  0.00  0.00    +0.181 A 
ATOM      2  C8  UNL     1      61.172  18.795   9.840  0.00  0.00    +0.208 A 
ATOM      3  C9  UNL     1      60.195  18.187   8.907  0.00  0.00    +0.238 A 
ATOM      4  O1  UNL     1      59.812  17.030   9.073  0.00  0.00    -0.283 OA
ATOM      5  C10 UNL     1      59.716  19.011   7.796  0.00  0.00    +0.109 A 
ATOM      6  C11 UNL     1      58.788  18.529   6.868  0.00  0.00    +0.135 A 
ATOM      7  C12 UNL     1      58.358  19.347   5.827  0.00  0.00    +0.091 A 
ATOM      8  C13 UNL     1      58.859  20.641   5.720  0.00  0.00    +0.124 A 
ATOM      9  C14 UNL     1      59.783  21.132   6.638  0.00  0.00    +0.092 A 
ATOM     10  C15 UNL     1      60.211  20.308   7.680  0.00  0.00    +0.147 A 
ATOM     11  O2  UNL     1      61.125  20.839   8.555  0.00  0.00    -0.451 OA
ENDROOT
BRANCH   1  17
ATOM     12  C1  UNL     1      62.111  21.412  11.645  0.00  0.00    +0.015 A 
ATOM     13  C2  UNL     1      63.021  22.061  12.483  0.00  0.00    +0.046 A 
ATOM     14  C3  UNL     1      64.372  22.065  12.161  0.00  0.00    +0.117 A 
ATOM     15  C4  UNL     1      64.831  21.425  11.015  0.00  0.00    +0.046 A 
ATOM     16  C5  UNL     1      63.919  20.774  10.178  0.00  0.00    +0.015 A 
ATOM     17  C6  UNL     1      62.547  20.766  10.476  0.00  0.00    +0.021 A 
BRANCH  14  18
ATOM     18  O6  UNL     1      65.225  22.711  13.006  0.00  0.00    -0.507 OA
ATOM     19  H10 UNL     1      65.034  22.427  13.915  0.00  0.00    +0.292 HD
ENDBRANCH  14  18
ENDBRANCH   1  17
BRANCH   8  20
ATOM     20  O3  UNL     1      58.411  21.410   4.686  0.00  0.00    -0.507 OA
ATOM     21  H7  UNL     1      58.111  22.268   5.029  0.00  0.00    +0.292 HD
ENDBRANCH   8  20
BRANCH   6  22
ATOM     22  O4  UNL     1      58.264  17.267   6.924  0.00  0.00    -0.506 OA
ATOM     23  H8  UNL     1      57.628  17.158   6.182  0.00  0.00    +0.292 HD
ENDBRANCH   6  22
BRANCH   2  24
ATOM     24  O5  UNL     1      61.627  18.003  10.878  0.00  0.00    -0.501 OA
ATOM     25  H9  UNL     1      61.232  18.384  11.690  0.00  0.00    +0.292 HD
ENDBRANCH   2  24
TORSDOF 5
ENDMDL
MODEL 3
REMARK VINA RESULT:    -8.414      3.046      6.284
REMARK INTER + INTRA:          -9.908
REMARK INTER:                  -9.612
REMARK INTRA:                  -0.296
REMARK UNBOUND:                -0.019
REMARK  Name = data/mahkota_dewa_dn/results/docking/ligands/pdb/Kaempferol.pdb
REMARK  5 active torsions:
REMARK  status: ('A' for Active; 'I' for Inactive)
REMARK    1  A    between atoms: C3_3  and  O6_21
REMARK    2  A    between atoms: C6_6  and  C7_7
REMARK    3  A    between atoms: C8_8  and  O5_20
REMARK    4  A    between atoms: C11_12  and  O4_19
REMARK    5  A    between atoms: C13_14  and  O3_18
REMARK                            x       y       z     vdW  Elec       q    Type
REMARK                         _______ _______ _______ _____ _____    ______ ____
ROOT
ATOM      1  C7  UNL     1      61.649  20.520   9.344  0.00  0.00    +0.181 A 
ATOM      2  C8  UNL     1      61.174  21.212   8.291  0.00  0.00    +0.208 A 
ATOM      3  C9  UNL     1      60.177  20.562   7.408  0.00  0.00    +0.238 A 
ATOM      4  O1  UNL     1      59.717  21.163   6.439  0.00  0.00    -0.283 OA
ATOM      5  C10 UNL     1      59.772  19.194   7.737  0.00  0.00    +0.109 A 
ATOM      6  C11 UNL     1      58.845  18.494   6.960  0.00  0.00    +0.135 A 
ATOM      7  C12 UNL     1      58.488  17.194   7.307  0.00  0.00    +0.091 A 
ATOM      8  C13 UNL     1      59.060  16.603   8.430  0.00  0.00    +0.124 A 
ATOM      9  C14 UNL     1      59.984  17.291   9.212  0.00  0.00    +0.092 A 
ATOM     10  C15 UNL     1      60.339  18.594   8.858  0.00  0.00    +0.147 A 
ATOM     11  O2  UNL     1      61.251  19.227   9.663  0.00  0.00    -0.451 OA
ENDROOT
BRANCH   1  17
ATOM     12  C1  UNL     1      62.198  21.597  11.525  0.00  0.00    +0.015 A 
ATOM     13  C2  UNL     1      63.114  22.100  12.452  0.00  0.00    +0.046 A 
ATOM     14  C3  UNL     1      64.471  22.077  12.160  0.00  0.00    +0.117 A 
ATOM     15  C4  UNL     1      64.931  21.555  10.956  0.00  0.00    +0.046 A 
ATOM     16  C5  UNL     1      64.012  21.051  10.030  0.00  0.00    +0.015 A 
ATOM     17  C6  UNL     1      62.634  21.072  10.297  0.00  0.00    +0.021 A 
BRANCH  14  18
ATOM     18  O6  UNL     1      65.330  22.579  13.092  0.00  0.00    -0.507 OA
ATOM     19  H10 UNL     1      64.956  23.402  13.447  0.00  0.00    +0.292 HD
ENDBRANCH  14  18
ENDBRANCH   1  17
BRANCH   8  20
ATOM     20  O3  UNL     1      58.683  15.328   8.735  0.00  0.00    -0.507 OA
ATOM     21  H7  UNL     1      59.438  14.851   9.116  0.00  0.00    +0.292 HD
ENDBRANCH   8  20
BRANCH   6  22
ATOM     22  O4  UNL     1      58.251  19.025   5.848  0.00  0.00    -0.506 OA
ATOM     23  H8  UNL     1      57.608  18.372   5.492  0.00  0.00    +0.292 HD
ENDBRANCH   6  22
BRANCH   2  24
ATOM     24  O5  UNL     1      61.540  22.508   7.978  0.00  0.00    -0.501 OA
ATOM     25  H9  UNL     1      61.622  22.970   8.838  0.00  0.00    +0.292 HD
ENDBRANCH   2  24
TORSDOF 5
ENDMDL
MODEL 4
REMARK VINA RESULT:    -8.269      4.245      7.215
REMARK INTER + INTRA:          -9.739
REMARK INTER:                  -9.646
REMARK INTRA:                  -0.093
REMARK UNBOUND:                -0.019
REMARK  Name = data/mahkota_dewa_dn/results/docking/ligands/pdb/Kaempferol.pdb
REMARK  5 active torsions:
REMARK  status: ('A' for Active; 'I' for Inactive)
REMARK    1  A    between atoms: C3_3  and  O6_21
REMARK    2  A    between atoms: C6_6  and  C7_7
REMARK    3  A    between atoms: C8_8  and  O5_20
REMARK    4  A    between atoms: C11_12  and  O4_19
REMARK    5  A    between atoms: C13_14  and  O3_18
REMARK                            x       y       z     vdW  Elec       q    Type
REMARK                         _______ _______ _______ _____ _____    ______ ____
ROOT
ATOM      1  C7  UNL     1      58.248  16.031   8.088  0.00  0.00    +0.181 A 
ATOM      2  C8  UNL     1      58.070  16.994   7.165  0.00  0.00    +0.208 A 
ATOM      3  C9  UNL     1      58.862  18.241   7.282  0.00  0.00    +0.238 A 
ATOM      4  O1  UNL     1      58.731  19.142   6.456  0.00  0.00    -0.283 OA
ATOM      5  C10 UNL     1      59.792  18.349   8.407  0.00  0.00    +0.109 A 
ATOM      6  C11 UNL     1      60.577  19.489   8.607  0.00  0.00    +0.135 A 
ATOM      7  C12 UNL     1      61.448  19.551   9.691  0.00  0.00    +0.091 A 
ATOM      8  C13 UNL     1      61.530  18.473  10.567  0.00  0.00    +0.124 A 
ATOM      9  C14 UNL     1      60.754  17.332  10.378  0.00  0.00    +0.092 A 
ATOM     10  C15 UNL     1      59.882  17.275   9.289  0.00  0.00    +0.147 A 
ATOM     11  O2  UNL     1      59.143  16.128   9.147  0.00  0.00    -0.451 OA
ENDROOT
BRANCH   1  17
ATOM     12  C1  UNL     1      57.617  13.911   6.936  0.00  0.00    +0.015 A 
ATOM     13  C2  UNL     1      56.961  12.678   6.901  0.00  0.00    +0.046 A 
ATOM     14  C3  UNL     1      56.212  12.266   7.995  0.00  0.00    +0.117 A 
ATOM     15  C4  UNL     1      56.110  13.066   9.128  0.00  0.00    +0.046 A 
ATOM     16  C5  UNL     1      56.768  14.299   9.162  0.00  0.00    +0.015 A 
ATOM     17  C6  UNL     1      57.523  14.742   8.064  0.00  0.00    +0.021 A 
BRANCH  14  18
ATOM     18  O6  UNL     1      55.587  11.057   7.919  0.00  0.00    -0.507 OA
ATOM     19  H10 UNL     1      54.679  11.157   8.248  0.00  0.00    +0.292 HD
ENDBRANCH  14  18
ENDBRANCH   1  17
BRANCH   8  20
ATOM     20  O3  UNL     1      62.396  18.574  11.616  0.00  0.00    -0.507 OA
ATOM     21  H7  UNL     1      63.280  18.799  11.284  0.00  0.00    +0.292 HD
ENDBRANCH   8  20
BRANCH   6  22
ATOM     22  O4  UNL     1      60.537  20.576   7.779  0.00  0.00    -0.506 OA
ATOM     23  H8  UNL     1      61.015  21.318   8.211  0.00  0.00    +0.292 HD
ENDBRANCH   6  22
BRANCH   2  24
ATOM     24  O5  UNL     1      57.204  16.899   6.091  0.00  0.00    -0.501 OA
ATOM     25  H9  UNL     1      57.713  17.219   5.317  0.00  0.00    +0.292 HD
ENDBRANCH   2  24
TORSDOF 5
ENDMDL
MODEL 5
REMARK VINA RESULT:    -8.244      2.864      5.083
REMARK INTER + INTRA:          -9.709
REMARK INTER:                  -9.976
REMARK INTRA:                   0.267
REMARK UNBOUND:                -0.019
REMARK  Name = data/mahkota_dewa_dn/results/docking/ligands/pdb/Kaempferol.pdb
REMARK  5 active torsions:
REMARK  status: ('A' for Active; 'I' for Inactive)
REMARK    1  A    between atoms: C3_3  and  O6_21
REMARK    2  A    between atoms: C6_6  and  C7_7
REMARK    3  A    between atoms: C8_8  and  O5_20
REMARK    4  A    between atoms: C11_12  and  O4_19
REMARK    5  A    between atoms: C13_14  and  O3_18
REMARK                            x       y       z     vdW  Elec       q    Type
REMARK                         _______ _______ _______ _____ _____    ______ ____
ROOT
ATOM      1  C7  UNL     1      59.857  17.579   8.887  0.00  0.00    +0.181 A 
ATOM      2  C8  UNL     1      60.552  17.385  10.024  0.00  0.00    +0.208 A 
ATOM      3  C9  UNL     1      61.354  18.507  10.564  0.00  0.00    +0.238 A 
ATOM      4  O1  UNL     1      61.998  18.370  11.602  0.00  0.00    -0.283 OA
ATOM      5  C10 UNL     1      61.344  19.767   9.818  0.00  0.00    +0.109 A 
ATOM      6  C11 UNL     1      62.076  20.879  10.242  0.00  0.00    +0.135 A 
ATOM      7  C12 UNL     1      62.040  22.058   9.502  0.00  0.00    +0.091 A 
ATOM      8  C13 UNL     1      61.272  22.116   8.342  0.00  0.00    +0.124 A 
ATOM      9  C14 UNL     1      60.539  21.014   7.910  0.00  0.00    +0.092 A 
ATOM     10  C15 UNL     1      60.579  19.835   8.656  0.00  0.00    +0.147 A 
ATOM     11  O2  UNL     1      59.837  18.780   8.187  0.00  0.00    -0.451 OA
ENDROOT
BRANCH   1  17
ATOM     12  C1  UNL     1      58.719  16.606   6.893  0.00  0.00    +0.015 A 
ATOM     13  C2  UNL     1      57.946  15.619   6.278  0.00  0.00    +0.046 A 
ATOM     14  C3  UNL     1      57.466  14.554   7.028  0.00  0.00    +0.117 A 
ATOM     15  C4  UNL     1      57.750  14.456   8.386  0.00  0.00    +0.046 A 
ATOM     16  C5  UNL     1      58.526  15.445   8.999  0.00  0.00    +0.015 A 
ATOM     17  C6  UNL     1      59.014  16.537   8.264  0.00  0.00    +0.021 A 
BRANCH  14  18
ATOM     18  O6  UNL     1      56.715  13.613   6.389  0.00  0.00    -0.507 OA
ATOM     19  H10 UNL     1      55.949  13.397   6.947  0.00  0.00    +0.292 HD
ENDBRANCH  14  18
ENDBRANCH   1  17
BRANCH   8  20
ATOM     20  O3  UNL     1      61.264  23.289   7.646  0.00  0.00    -0.507 OA
ATOM     21  H7  UNL     1      61.338  24.033   8.267  0.00  0.00    +0.292 HD
ENDBRANCH   8  20
BRANCH   6  22
ATOM     22  O4  UNL     1      62.846  20.879  11.372  0.00  0.00    -0.506 OA
ATOM     23  H8  UNL     1      63.793  20.870  11.108  0.00  0.00    +0.292 HD
ENDBRANCH   6  22
BRANCH   2  24
ATOM     24  O5  UNL     1      60.558  16.204  10.744  0.00  0.00    -0.501 OA
ATOM     25  H9  UNL     1      60.616  15.491  10.074  0.00  0.00    +0.292 HD
ENDBRANCH   2  24
TORSDOF 5
ENDMDL
MODEL 6
REMARK VINA RESULT:    -8.223      2.120      3.363
REMARK INTER + INTRA:          -9.684
REMARK INTER:                 -10.104
REMARK INTRA:                   0.420
REMARK UNBOUND:                -0.019
REMARK  Name = data/mahkota_dewa_dn/results/docking/ligands/pdb/Kaempferol.pdb
REMARK  5 active torsions:
REMARK  status: ('A' for Active; 'I' for Inactive)
REMARK    1  A    between atoms: C3_3  and  O6_21
REMARK    2  A    between atoms: C6_6  and  C7_7
REMARK    3  A    between atoms: C8_8  and  O5_20
REMARK    4  A    between atoms: C11_12  and  O4_19
REMARK    5  A    between atoms: C13_14  and  O3_18
REMARK                            x       y       z     vdW  Elec       q    Type
REMARK                         _______ _______ _______ _____ _____    ______ ____
ROOT
ATOM      1  C7  UNL     1      60.861  19.056   9.431  0.00  0.00    +0.181 A 
ATOM      2  C8  UNL     1      61.721  19.283  10.441  0.00  0.00    +0.208 A 
ATOM      3  C9  UNL     1      62.360  20.616  10.540  0.00  0.00    +0.238 A 
ATOM      4  O1  UNL     1      63.148  20.863  11.451  0.00  0.00    -0.283 OA
ATOM      5  C10 UNL     1      62.017  21.609   9.521  0.00  0.00    +0.109 A 
ATOM      6  C11 UNL     1      62.574  22.891   9.525  0.00  0.00    +0.135 A 
ATOM      7  C12 UNL     1      62.220  23.805   8.535  0.00  0.00    +0.091 A 
ATOM      8  C13 UNL     1      61.311  23.431   7.550  0.00  0.00    +0.124 A 
ATOM      9  C14 UNL     1      60.749  22.157   7.537  0.00  0.00    +0.092 A 
ATOM     10  C15 UNL     1      61.108  21.245   8.531  0.00  0.00    +0.147 A 
ATOM     11  O2  UNL     1      60.524  20.005   8.473  0.00  0.00    -0.451 OA
ENDROOT
BRANCH   1  17
ATOM     12  C1  UNL     1      60.272  16.762  10.212  0.00  0.00    +0.015 A 
ATOM     13  C2  UNL     1      59.595  15.549  10.066  0.00  0.00    +0.046 A 
ATOM     14  C3  UNL     1      58.794  15.338   8.952  0.00  0.00    +0.117 A 
ATOM     15  C4  UNL     1      58.654  16.323   7.981  0.00  0.00    +0.046 A 
ATOM     16  C5  UNL     1      59.332  17.537   8.129  0.00  0.00    +0.015 A 
ATOM     17  C6  UNL     1      60.156  17.770   9.241  0.00  0.00    +0.021 A 
BRANCH  14  18
ATOM     18  O6  UNL     1      58.151  14.140   8.848  0.00  0.00    -0.507 OA
ATOM     19  H10 UNL     1      58.095  13.742   9.733  0.00  0.00    +0.292 HD
ENDBRANCH  14  18
ENDBRANCH   1  17
BRANCH   8  20
ATOM     20  O3  UNL     1      60.992  24.356   6.599  0.00  0.00    -0.507 OA
ATOM     21  H7  UNL     1      60.083  24.665   6.743  0.00  0.00    +0.292 HD
ENDBRANCH   8  20
BRANCH   6  22
ATOM     22  O4  UNL     1      63.470  23.312  10.467  0.00  0.00    -0.506 OA
ATOM     23  H8  UNL     1      64.201  23.791  10.016  0.00  0.00    +0.292 HD
ENDBRANCH   6  22
BRANCH   2  24
ATOM     24  O5  UNL     1      62.044  18.358  11.417  0.00  0.00    -0.501 OA
ATOM     25  H9  UNL     1      63.023  18.351  11.455  0.00  0.00    +0.292 HD
ENDBRANCH   2  24
TORSDOF 5
ENDMDL
MODEL 7
REMARK VINA RESULT:    -8.192      2.370      7.135
REMARK INTER + INTRA:          -9.647
REMARK INTER:                  -9.479
REMARK INTRA:                  -0.168
REMARK UNBOUND:                -0.019
REMARK  Name = data/mahkota_dewa_dn/results/docking/ligands/pdb/Kaempferol.pdb
REMARK  5 active torsions:
REMARK  status: ('A' for Active; 'I' for Inactive)
REMARK    1  A    between atoms: C3_3  and  O6_21
REMARK    2  A    between atoms: C6_6  and  C7_7
REMARK    3  A    between atoms: C8_8  and  O5_20
REMARK    4  A    between atoms: C11_12  and  O4_19
REMARK    5  A    between atoms: C13_14  and  O3_18
REMARK                            x       y       z     vdW  Elec       q    Type
REMARK                         _______ _______ _______ _____ _____    ______ ____
ROOT
ATOM      1  C7  UNL     1      61.114  19.552   9.122  0.00  0.00    +0.181 A 
ATOM      2  C8  UNL     1      61.330  18.669  10.114  0.00  0.00    +0.208 A 
ATOM      3  C9  UNL     1      60.570  17.397  10.107  0.00  0.00    +0.238 A 
ATOM      4  O1  UNL     1      60.743  16.563  10.994  0.00  0.00    -0.283 OA
ATOM      5  C10 UNL     1      59.621  17.181   9.014  0.00  0.00    +0.109 A 
ATOM      6  C11 UNL     1      58.852  16.017   8.925  0.00  0.00    +0.135 A 
ATOM      7  C12 UNL     1      57.960  15.853   7.869  0.00  0.00    +0.091 A 
ATOM      8  C13 UNL     1      57.842  16.854   6.909  0.00  0.00    +0.124 A 
ATOM      9  C14 UNL     1      58.603  18.017   6.986  0.00  0.00    +0.092 A 
ATOM     10  C15 UNL     1      59.496  18.177   8.048  0.00  0.00    +0.147 A 
ATOM     11  O2  UNL     1      60.223  19.340   8.076  0.00  0.00    -0.451 OA
ENDROOT
BRANCH   1  17
ATOM     12  C1  UNL     1      63.211  20.865   8.808  0.00  0.00    +0.015 A 
ATOM     13  C2  UNL     1      63.898  22.075   8.684  0.00  0.00    +0.046 A 
ATOM     14  C3  UNL     1      63.200  23.273   8.765  0.00  0.00    +0.117 A 
ATOM     15  C4  UNL     1      61.825  23.283   8.966  0.00  0.00    +0.046 A 
ATOM     16  C5  UNL     1      61.139  22.070   9.089  0.00  0.00    +0.015 A 
ATOM     17  C6  UNL     1      61.822  20.846   9.020  0.00  0.00    +0.021 A 
BRANCH  14  18
ATOM     18  O6  UNL     1      63.909  24.431   8.639  0.00  0.00    -0.507 OA
ATOM     19  H10 UNL     1      63.603  24.896   7.844  0.00  0.00    +0.292 HD
ENDBRANCH  14  18
ENDBRANCH   1  17
BRANCH   8  20
ATOM     20  O3  UNL     1      56.957  16.653   5.891  0.00  0.00    -0.507 OA
ATOM     21  H7  UNL     1      56.346  17.407   5.842  0.00  0.00    +0.292 HD
ENDBRANCH   8  20
BRANCH   6  22
ATOM     22  O4  UNL     1      58.927  15.003   9.839  0.00  0.00    -0.506 OA
ATOM     23  H8  UNL     1      59.269  15.367  10.686  0.00  0.00    +0.292 HD
ENDBRANCH   6  22
BRANCH   2  24
ATOM     24  O5  UNL     1      62.232  18.856  11.145  0.00  0.00    -0.501 OA
ATOM     25  H9  UNL     1      62.395  19.822  11.176  0.00  0.00    +0.292 HD
ENDBRANCH   2  24
TORSDOF 5
ENDMDL
MODEL 8
REMARK VINA RESULT:    -8.082      3.368      4.567
REMARK INTER + INTRA:          -9.518
REMARK INTER:                  -9.225
REMARK INTRA:                  -0.293
REMARK UNBOUND:                -0.019
REMARK  Name = data/mahkota_dewa_dn/results/docking/ligands/pdb/Kaempferol.pdb
REMARK  5 active torsions:
REMARK  status: ('A' for Active; 'I' for Inactive)
REMARK    1  A    between atoms: C3_3  and  O6_21
REMARK    2  A    between atoms: C6_6  and  C7_7
REMARK    3  A    between atoms: C8_8  and  O5_20
REMARK    4  A    between atoms: C11_12  and  O4_19
REMARK    5  A    between atoms: C13_14  and  O3_18
REMARK                            x       y       z     vdW  Elec       q    Type
REMARK                         _______ _______ _______ _____ _____    ______ ____
ROOT
ATOM      1  C7  UNL     1      62.466  21.572   9.125  0.00  0.00    +0.181 A 
ATOM      2  C8  UNL     1      62.445  21.812  10.449  0.00  0.00    +0.208 A 
ATOM      3  C9  UNL     1      63.717  21.728  11.204  0.00  0.00    +0.238 A 
ATOM      4  O1  UNL     1      63.739  21.945  12.414  0.00  0.00    -0.283 OA
ATOM      5  C10 UNL     1      64.927  21.382  10.456  0.00  0.00    +0.109 A 
ATOM      6  C11 UNL     1      66.172  21.270  11.080  0.00  0.00    +0.135 A 
ATOM      7  C12 UNL     1      67.297  20.937  10.331  0.00  0.00    +0.091 A 
ATOM      8  C13 UNL     1      67.170  20.719   8.963  0.00  0.00    +0.124 A 
ATOM      9  C14 UNL     1      65.935  20.828   8.330  0.00  0.00    +0.092 A 
ATOM     10  C15 UNL     1      64.810  21.162   9.086  0.00  0.00    +0.147 A 
ATOM     11  O2  UNL     1      63.618  21.258   8.413  0.00  0.00    -0.451 OA
ENDROOT
BRANCH   1  17
ATOM     12  C1  UNL     1      60.841  22.877   7.756  0.00  0.00    +0.015 A 
ATOM     13  C2  UNL     1      59.721  22.962   6.925  0.00  0.00    +0.046 A 
ATOM     14  C3  UNL     1      59.017  21.810   6.600  0.00  0.00    +0.117 A 
ATOM     15  C4  UNL     1      59.417  20.571   7.088  0.00  0.00    +0.046 A 
ATOM     16  C5  UNL     1      60.540  20.488   7.918  0.00  0.00    +0.015 A 
ATOM     17  C6  UNL     1      61.262  21.640   8.270  0.00  0.00    +0.021 A 
BRANCH  14  18
ATOM     18  O6  UNL     1      57.930  21.937   5.788  0.00  0.00    -0.507 OA
ATOM     19  H10 UNL     1      57.809  21.106   5.300  0.00  0.00    +0.292 HD
ENDBRANCH  14  18
ENDBRANCH   1  17
BRANCH   8  20
ATOM     20  O3  UNL     1      68.297  20.395   8.266  0.00  0.00    -0.507 OA
ATOM     21  H7  UNL     1      69.005  20.161   8.888  0.00  0.00    +0.292 HD
ENDBRANCH   8  20
BRANCH   6  22
ATOM     22  O4  UNL     1      66.355  21.474  12.420  0.00  0.00    -0.506 OA
ATOM     23  H8  UNL     1      66.557  20.610  12.845  0.00  0.00    +0.292 HD
ENDBRANCH   6  22
BRANCH   2  24
ATOM     24  O5  UNL     1      61.311  22.153  11.164  0.00  0.00    -0.501 OA
ATOM     25  H9  UNL     1      60.832  21.310  11.308  0.00  0.00    +0.292 HD
ENDBRANCH   2  24
TORSDOF 5
ENDMDL
MODEL 9
REMARK VINA RESULT:    -7.995      3.354      6.110
REMARK INTER + INTRA:          -9.416
REMARK INTER:                  -9.236
REMARK INTRA:                  -0.180
REMARK UNBOUND:                -0.019
REMARK  Name = data/mahkota_dewa_dn/results/docking/ligands/pdb/Kaempferol.pdb
REMARK  5 active torsions:
REMARK  status: ('A' for Active; 'I' for Inactive)
REMARK    1  A    between atoms: C3_3  and  O6_21
REMARK    2  A    between atoms: C6_6  and  C7_7
REMARK    3  A    between atoms: C8_8  and  O5_20
REMARK    4  A    between atoms: C11_12  and  O4_19
REMARK    5  A    between atoms: C13_14  and  O3_18
REMARK                            x       y       z     vdW  Elec       q    Type
REMARK                         _______ _______ _______ _____ _____    ______ ____
ROOT
ATOM      1  C7  UNL     1      63.266  23.549   8.274  0.00  0.00    +0.181 A 
ATOM      2  C8  UNL     1      62.696  23.913   9.437  0.00  0.00    +0.208 A 
ATOM      3  C9  UNL     1      63.159  23.264  10.686  0.00  0.00    +0.238 A 
ATOM      4  O1  UNL     1      62.666  23.573  11.769  0.00  0.00    -0.283 OA
ATOM      5  C10 UNL     1      64.214  22.255  10.573  0.00  0.00    +0.109 A 
ATOM      6  C11 UNL     1      64.711  21.581  11.693  0.00  0.00    +0.135 A 
ATOM      7  C12 UNL     1      65.714  20.627  11.541  0.00  0.00    +0.091 A 
ATOM      8  C13 UNL     1      66.213  20.354  10.271  0.00  0.00    +0.124 A 
ATOM      9  C14 UNL     1      65.727  21.019   9.149  0.00  0.00    +0.092 A 
ATOM     10  C15 UNL     1      64.721  21.974   9.307  0.00  0.00    +0.147 A 
ATOM     11  O2  UNL     1      64.278  22.602   8.170  0.00  0.00    -0.451 OA
ENDROOT
BRANCH   1  17
ATOM     12  C1  UNL     1      62.280  23.336   5.993  0.00  0.00    +0.015 A 
ATOM     13  C2  UNL     1      61.895  23.877   4.764  0.00  0.00    +0.046 A 
ATOM     14  C3  UNL     1      62.118  25.223   4.504  0.00  0.00    +0.117 A 
ATOM     15  C4  UNL     1      62.716  26.041   5.457  0.00  0.00    +0.046 A 
ATOM     16  C5  UNL     1      63.098  25.498   6.688  0.00  0.00    +0.015 A 
ATOM     17  C6  UNL     1      62.893  24.138   6.970  0.00  0.00    +0.021 A 
BRANCH  14  18
ATOM     18  O6  UNL     1      61.729  25.709   3.292  0.00  0.00    -0.507 OA
ATOM     19  H10 UNL     1      62.160  26.568   3.150  0.00  0.00    +0.292 HD
ENDBRANCH  14  18
ENDBRANCH   1  17
BRANCH   8  20
ATOM     20  O3  UNL     1      67.195  19.413  10.166  0.00  0.00    -0.507 OA
ATOM     21  H7  UNL     1      68.063  19.846  10.216  0.00  0.00    +0.292 HD
ENDBRANCH   8  20
BRANCH   6  22
ATOM     22  O4  UNL     1      64.258  21.809  12.962  0.00  0.00    -0.506 OA
ATOM     23  H8  UNL     1      65.020  21.764  13.581  0.00  0.00    +0.292 HD
ENDBRANCH   6  22
BRANCH   2  24
ATOM     24  O5  UNL     1      61.709  24.874   9.558  0.00  0.00    -0.501 OA
ATOM     25  H9  UNL     1      60.869  24.374   9.644  0.00  0.00    +0.292 HD
ENDBRANCH   2  24
TORSDOF 5
ENDMDL
