MODEL 1
REMARK VINA RESULT:    -8.620      0.000      0.000
REMARK INTER + INTRA:         -11.827
REMARK INTER:                 -11.140
REMARK INTRA:                  -0.687
REMARK UNBOUND:                -0.687
REMARK  Name = data/mahkota_dewa_dn/results/docking/ligands/pdb/Pinoresinol.pdb
REMARK  8 active torsions:
REMARK  status: ('A' for Active; 'I' for Inactive)
REMARK    1  A    between atoms: C1_1  and  O1_2
REMARK    2  A    between atoms: O1_2  and  C2_3
REMARK    3  A    between atoms: C4_5  and  C8_10
REMARK    4  A    between atoms: C7_8  and  O2_9
REMARK    5  A    between atoms: C13_17  and  C14_18
REMARK    6  A    between atoms: C16_20  and  O6_25
REMARK    7  A    between atoms: C17_21  and  O5_24
REMARK    8  A    between atoms: O6_25  and  C20_26
REMARK                            x       y       z     vdW  Elec       q    Type
REMARK                         _______ _______ _______ _____ _____    ______ ____
ROOT
ATOM      1  C8  UNL     1      63.499  22.589   5.609  0.00  0.00    +0.154 C 
ATOM      2  O3  UNL     1      64.668  21.881   6.143  0.00  0.00    -0.371 OA
ATOM      3  C9  UNL     1      64.327  21.343   7.456  0.00  0.00    +0.167 C 
ATOM      4  C10 UNL     1      62.832  21.418   7.481  0.00  0.00    +0.056 C 
ATOM      5  C11 UNL     1      62.626  22.748   6.824  0.00  0.00    +0.056 C 
ATOM      6  C12 UNL     1      61.132  22.823   6.849  0.00  0.00    +0.167 C 
ATOM      7  O4  UNL     1      60.790  22.286   8.163  0.00  0.00    -0.371 OA
ATOM      8  C13 UNL     1      61.959  21.578   8.696  0.00  0.00    +0.154 C 
ENDROOT
BRANCH   1  11
ATOM      9  C2  UNL     1      65.214  25.236   3.424  0.00  0.00    +0.162 A 
ATOM     10  C3  UNL     1      64.866  24.002   3.986  0.00  0.00    +0.055 A 
ATOM     11  C4  UNL     1      63.870  23.908   4.975  0.00  0.00    -0.015 A 
ATOM     12  C5  UNL     1      63.226  25.081   5.400  0.00  0.00    +0.010 A 
ATOM     13  C6  UNL     1      63.567  26.318   4.851  0.00  0.00    +0.049 A 
ATOM     14  C7  UNL     1      64.556  26.389   3.872  0.00  0.00    +0.158 A 
BRANCH   9  16
ATOM     15  C1  UNL     1      67.410  24.749   2.638  0.00  0.00    +0.277 C 
ATOM     16  O1  UNL     1      66.171  25.419   2.461  0.00  0.00    -0.491 OA
ENDBRANCH   9  16
BRANCH  14  17
ATOM     17  O2  UNL     1      64.893  27.602   3.334  0.00  0.00    -0.503 OA
ATOM     18  H7  UNL     1      65.280  28.160   4.025  0.00  0.00    +0.292 HD
ENDBRANCH  14  17
ENDBRANCH   1  11
BRANCH   8  19
ATOM     19  C14 UNL     1      61.588  20.258   9.331  0.00  0.00    -0.015 A 
ATOM     20  C15 UNL     1      60.769  19.324   8.673  0.00  0.00    +0.055 A 
ATOM     21  C16 UNL     1      60.453  18.095   9.265  0.00  0.00    +0.162 A 
ATOM     22  C17 UNL     1      60.978  17.803  10.531  0.00  0.00    +0.158 A 
ATOM     23  C18 UNL     1      61.793  18.716  11.199  0.00  0.00    +0.049 A 
ATOM     24  C19 UNL     1      62.096  19.939  10.599  0.00  0.00    +0.010 A 
BRANCH  22  25
ATOM     25  O5  UNL     1      60.681  16.602  11.117  0.00  0.00    -0.503 OA
ATOM     26  H19 UNL     1      60.240  16.033  10.468  0.00  0.00    +0.292 HD
ENDBRANCH  22  25
BRANCH  21  27
ATOM     27  O6  UNL     1      59.665  17.129   8.698  0.00  0.00    -0.491 OA
ATOM     28  C20 UNL     1      58.903  17.495   7.557  0.00  0.00    +0.277 C 
ENDBRANCH  21  27
ENDBRANCH   8  19
TORSDOF 6
ENDMDL
MODEL 2
REMARK VINA RESULT:    -8.488      4.763      6.525
REMARK INTER + INTRA:         -11.656
REMARK INTER:                 -10.966
REMARK INTRA:                  -0.689
REMARK UNBOUND:                -0.687
REMARK  Name = data/mahkota_dewa_dn/results/docking/ligands/pdb/Pinoresinol.pdb
REMARK  8 active torsions:
REMARK  status: ('A' for Active; 'I' for Inactive)
REMARK    1  A    between atoms: C1_1  and  O1_2
REMARK    2  A    between atoms: O1_2  and  C2_3
REMARK    3  A    between atoms: C4_5  and  C8_10
REMARK    4  A    between atoms: C7_8  and  O2_9
REMARK    5  A    between atoms: C13_17  and  C14_18
REMARK    6  A    between atoms: C16_20  and  O6_25
REMARK    7  A    between atoms: C17_21  and  O5_24
REMARK    8  A    between atoms: O6_25  and  C20_26
REMARK                            x       y       z     vdW  Elec       q    Type
REMARK                         _______ _______ _______ _____ _____    ______ ____
ROOT
ATOM      1  C8  UNL     1      61.656  20.787  10.415  0.00  0.00    +0.154 C 
ATOM      2  O3  UNL     1      61.443  21.528   9.167  0.00  0.00    -0.371 OA
ATOM      3  C9  UNL     1      60.954  20.600   8.152  0.00  0.00    +0.167 C 
ATOM      4  C10 UNL     1      60.519  19.413   8.951  0.00  0.00    +0.056 C 
ATOM      5  C11 UNL     1      61.629  19.353   9.956  0.00  0.00    +0.056 C 
ATOM      6  C12 UNL     1      61.193  18.166  10.756  0.00  0.00    +0.167 C 
ATOM      7  O4  UNL     1      60.705  17.238   9.741  0.00  0.00    -0.371 OA
ATOM      8  C13 UNL     1      60.492  17.979   8.493  0.00  0.00    +0.154 C 
ENDROOT
BRANCH   1  11
ATOM      9  C2  UNL     1      65.391  21.084  11.239  0.00  0.00    +0.162 A 
ATOM     10  C3  UNL     1      64.198  20.747  10.588  0.00  0.00    +0.055 A 
ATOM     11  C4  UNL     1      62.953  21.163  11.090  0.00  0.00    -0.015 A 
ATOM     12  C5  UNL     1      62.918  21.925  12.268  0.00  0.00    +0.010 A 
ATOM     13  C6  UNL     1      64.099  22.265  12.929  0.00  0.00    +0.049 A 
ATOM     14  C7  UNL     1      65.324  21.843  12.415  0.00  0.00    +0.158 A 
BRANCH   9  16
ATOM     15  C1  UNL     1      66.876  20.668   9.422  0.00  0.00    +0.277 C 
ATOM     16  O1  UNL     1      66.644  20.720  10.822  0.00  0.00    -0.491 OA
ENDBRANCH   9  16
BRANCH  14  17
ATOM     17  O2  UNL     1      66.483  22.175  13.063  0.00  0.00    -0.503 OA
ATOM     18  H7  UNL     1      66.908  21.367  13.390  0.00  0.00    +0.292 HD
ENDBRANCH  14  17
ENDBRANCH   1  11
BRANCH   8  19
ATOM     19  C14 UNL     1      59.195  17.603   7.817  0.00  0.00    -0.015 A 
ATOM     20  C15 UNL     1      58.504  16.423   8.144  0.00  0.00    +0.055 A 
ATOM     21  C16 UNL     1      57.291  16.099   7.525  0.00  0.00    +0.162 A 
ATOM     22  C17 UNL     1      56.765  16.982   6.573  0.00  0.00    +0.158 A 
ATOM     23  C18 UNL     1      57.434  18.158   6.236  0.00  0.00    +0.049 A 
ATOM     24  C19 UNL     1      58.645  18.466   6.857  0.00  0.00    +0.010 A 
BRANCH  22  25
ATOM     25  O5  UNL     1      55.575  16.680   5.965  0.00  0.00    -0.503 OA
ATOM     26  H19 UNL     1      55.678  15.861   5.457  0.00  0.00    +0.292 HD
ENDBRANCH  22  25
BRANCH  21  27
ATOM     27  O6  UNL     1      56.552  14.975   7.782  0.00  0.00    -0.491 OA
ATOM     28  C20 UNL     1      56.330  14.637   9.144  0.00  0.00    +0.277 C 
ENDBRANCH  21  27
ENDBRANCH   8  19
TORSDOF 6
ENDMDL
MODEL 3
REMARK VINA RESULT:    -8.418      1.346      8.815
REMARK INTER + INTRA:         -11.566
REMARK INTER:                 -10.865
REMARK INTRA:                  -0.701
REMARK UNBOUND:                -0.687
REMARK  Name = data/mahkota_dewa_dn/results/docking/ligands/pdb/Pinoresinol.pdb
REMARK  8 active torsions:
REMARK  status: ('A' for Active; 'I' for Inactive)
REMARK    1  A    between atoms: C1_1  and  O1_2
REMARK    2  A    between atoms: O1_2  and  C2_3
REMARK    3  A    between atoms: C4_5  and  C8_10
REMARK    4  A    between atoms: C7_8  and  O2_9
REMARK    5  A    between atoms: C13_17  and  C14_18
REMARK    6  A    between atoms: C16_20  and  O6_25
REMARK    7  A    between atoms: C17_21  and  O5_24
REMARK    8  A    between atoms: O6_25  and  C20_26
REMARK                            x       y       z     vdW  Elec       q    Type
REMARK                         _______ _______ _______ _____ _____    ______ ____
ROOT
ATOM      1  C8  UNL     1      61.628  20.765   8.994  0.00  0.00    +0.154 C 
ATOM      2  O3  UNL     1      63.085  20.876   9.129  0.00  0.00    -0.371 OA
ATOM      3  C9  UNL     1      63.604  21.614   7.981  0.00  0.00    +0.167 C 
ATOM      4  C10 UNL     1      62.382  22.257   7.404  0.00  0.00    +0.056 C 
ATOM      5  C11 UNL     1      61.401  21.135   7.553  0.00  0.00    +0.056 C 
ATOM      6  C12 UNL     1      60.179  21.779   6.977  0.00  0.00    +0.167 C 
ATOM      7  O4  UNL     1      60.697  22.516   5.828  0.00  0.00    -0.371 OA
ATOM      8  C13 UNL     1      62.154  22.627   5.963  0.00  0.00    +0.154 C 
ENDROOT
BRANCH   1  11
ATOM      9  C2  UNL     1      59.755  17.421   8.833  0.00  0.00    +0.162 A 
ATOM     10  C3  UNL     1      60.229  18.694   8.495  0.00  0.00    +0.055 A 
ATOM     11  C4  UNL     1      61.126  19.382   9.332  0.00  0.00    -0.015 A 
ATOM     12  C5  UNL     1      61.540  18.773  10.526  0.00  0.00    +0.010 A 
ATOM     13  C6  UNL     1      61.070  17.507  10.878  0.00  0.00    +0.049 A 
ATOM     14  C7  UNL     1      60.182  16.841  10.035  0.00  0.00    +0.158 A 
BRANCH   9  16
ATOM     15  C1  UNL     1      58.181  17.356   7.045  0.00  0.00    +0.277 C 
ATOM     16  O1  UNL     1      58.880  16.682   8.080  0.00  0.00    -0.491 OA
ENDBRANCH   9  16
BRANCH  14  17
ATOM     17  O2  UNL     1      59.721  15.599  10.379  0.00  0.00    -0.503 OA
ATOM     18  H7  UNL     1      58.771  15.550  10.194  0.00  0.00    +0.292 HD
ENDBRANCH  14  17
ENDBRANCH   1  11
BRANCH   8  19
ATOM     19  C14 UNL     1      62.657  24.011   5.625  0.00  0.00    -0.015 A 
ATOM     20  C15 UNL     1      63.644  24.222   4.647  0.00  0.00    +0.055 A 
ATOM     21  C16 UNL     1      64.083  25.513   4.329  0.00  0.00    +0.162 A 
ATOM     22  C17 UNL     1      63.511  26.602   5.000  0.00  0.00    +0.158 A 
ATOM     23  C18 UNL     1      62.531  26.414   5.972  0.00  0.00    +0.049 A 
ATOM     24  C19 UNL     1      62.106  25.122   6.283  0.00  0.00    +0.010 A 
BRANCH  22  25
ATOM     25  O5  UNL     1      63.928  27.870   4.692  0.00  0.00    -0.503 OA
ATOM     26  H19 UNL     1      64.665  27.819   4.065  0.00  0.00    +0.292 HD
ENDBRANCH  22  25
BRANCH  21  27
ATOM     27  O6  UNL     1      65.036  25.811   3.392  0.00  0.00    -0.491 OA
ATOM     28  C20 UNL     1      65.993  24.805   3.092  0.00  0.00    +0.277 C 
ENDBRANCH  21  27
ENDBRANCH   8  19
TORSDOF 6
ENDMDL
MODEL 4
REMARK VINA RESULT:    -8.219      4.181      8.384
REMARK INTER + INTRA:         -11.308
REMARK INTER:                 -10.575
REMARK INTRA:                  -0.732
REMARK UNBOUND:                -0.687
REMARK  Name = data/mahkota_dewa_dn/results/docking/ligands/pdb/Pinoresinol.pdb
REMARK  8 active torsions:
REMARK  status: ('A' for Active; 'I' for Inactive)
REMARK    1  A    between atoms: C1_1  and  O1_2
REMARK    2  A    between atoms: O1_2  and  C2_3
REMARK    3  A    between atoms: C4_5  and  C8_10
REMARK    4  A    between atoms: C7_8  and  O2_9
REMARK    5  A    between atoms: C13_17  and  C14_18
REMARK    6  A    between atoms: C16_20  and  O6_25
REMARK    7  A    between atoms: C17_21  and  O5_24
REMARK    8  A    between atoms: O6_25  and  C20_26
REMARK                            x       y       z     vdW  Elec       q    Type
REMARK                         _______ _______ _______ _____ _____    ______ ____
ROOT
ATOM      1  C8  UNL     1      59.680  17.417   8.060  0.00  0.00    +0.154 C 
ATOM      2  O3  UNL     1      59.006  16.303   8.737  0.00  0.00    -0.371 OA
ATOM      3  C9  UNL     1      57.646  16.199   8.219  0.00  0.00    +0.167 C 
ATOM      4  C10 UNL     1      57.691  17.013   6.964  0.00  0.00    +0.056 C 
ATOM      5  C11 UNL     1      58.534  18.160   7.427  0.00  0.00    +0.056 C 
ATOM      6  C12 UNL     1      58.580  18.974   6.171  0.00  0.00    +0.167 C 
ATOM      7  O4  UNL     1      57.219  18.870   5.654  0.00  0.00    -0.371 OA
ATOM      8  C13 UNL     1      56.546  17.756   6.331  0.00  0.00    +0.154 C 
ENDROOT
BRANCH   1  11
ATOM      9  C2  UNL     1      61.585  20.369   9.600  0.00  0.00    +0.162 A 
ATOM     10  C3  UNL     1      60.827  19.598   8.712  0.00  0.00    +0.055 A 
ATOM     11  C4  UNL     1      60.476  18.271   9.017  0.00  0.00    -0.015 A 
ATOM     12  C5  UNL     1      60.906  17.721  10.235  0.00  0.00    +0.010 A 
ATOM     13  C6  UNL     1      61.667  18.478  11.127  0.00  0.00    +0.049 A 
ATOM     14  C7  UNL     1      62.003  19.791  10.806  0.00  0.00    +0.158 A 
BRANCH   9  16
ATOM     15  C1  UNL     1      62.929  21.897   8.359  0.00  0.00    +0.277 C 
ATOM     16  O1  UNL     1      61.973  21.666   9.383  0.00  0.00    -0.491 OA
ENDBRANCH   9  16
BRANCH  14  17
ATOM     17  O2  UNL     1      62.751  20.534  11.681  0.00  0.00    -0.503 OA
ATOM     18  H7  UNL     1      63.182  19.941  12.313  0.00  0.00    +0.292 HD
ENDBRANCH  14  17
ENDBRANCH   1  11
BRANCH   8  19
ATOM     19  C14 UNL     1      55.749  16.902   5.373  0.00  0.00    -0.015 A 
ATOM     20  C15 UNL     1      56.336  16.316   4.238  0.00  0.00    +0.055 A 
ATOM     21  C16 UNL     1      55.590  15.508   3.372  0.00  0.00    +0.162 A 
ATOM     22  C17 UNL     1      54.237  15.281   3.662  0.00  0.00    +0.158 A 
ATOM     23  C18 UNL     1      53.637  15.852   4.783  0.00  0.00    +0.049 A 
ATOM     24  C19 UNL     1      54.391  16.659   5.635  0.00  0.00    +0.010 A 
BRANCH  22  25
ATOM     25  O5  UNL     1      53.498  14.487   2.826  0.00  0.00    -0.503 OA
ATOM     26  H19 UNL     1      54.026  13.714   2.574  0.00  0.00    +0.292 HD
ENDBRANCH  22  25
BRANCH  21  27
ATOM     27  O6  UNL     1      56.078  14.898   2.248  0.00  0.00    -0.491 OA
ATOM     28  C20 UNL     1      57.226  14.075   2.398  0.00  0.00    +0.277 C 
ENDBRANCH  21  27
ENDBRANCH   8  19
TORSDOF 6
ENDMDL
MODEL 5
REMARK VINA RESULT:    -8.138      3.515      6.854
REMARK INTER + INTRA:         -11.204
REMARK INTER:                 -10.429
REMARK INTRA:                  -0.775
REMARK UNBOUND:                -0.687
REMARK  Name = data/mahkota_dewa_dn/results/docking/ligands/pdb/Pinoresinol.pdb
REMARK  8 active torsions:
REMARK  status: ('A' for Active; 'I' for Inactive)
REMARK    1  A    between atoms: C1_1  and  O1_2
REMARK    2  A    between atoms: O1_2  and  C2_3
REMARK    3  A    between atoms: C4_5  and  C8_10
REMARK    4  A    between atoms: C7_8  and  O2_9
REMARK    5  A    between atoms: C13_17  and  C14_18
REMARK    6  A    between atoms: C16_20  and  O6_25
REMARK    7  A    between atoms: C17_21  and  O5_24
REMARK    8  A    between atoms: O6_25  and  C20_26
REMARK                            x       y       z     vdW  Elec       q    Type
REMARK                         _______ _______ _______ _____ _____    ______ ____
ROOT
ATOM      1  C8  UNL     1      61.244  18.603   9.145  0.00  0.00    +0.154 C 
ATOM      2  O3  UNL     1      61.237  17.575  10.192  0.00  0.00    -0.371 OA
ATOM      3  C9  UNL     1      60.072  16.718   9.994  0.00  0.00    +0.167 C 
ATOM      4  C10 UNL     1      59.646  17.033   8.594  0.00  0.00    +0.056 C 
ATOM      5  C11 UNL     1      59.849  18.517   8.588  0.00  0.00    +0.056 C 
ATOM      6  C12 UNL     1      59.424  18.833   7.188  0.00  0.00    +0.167 C 
ATOM      7  O4  UNL     1      58.258  17.976   6.990  0.00  0.00    -0.371 OA
ATOM      8  C13 UNL     1      58.250  16.948   8.037  0.00  0.00    +0.154 C 
ENDROOT
BRANCH   1  11
ATOM      9  C2  UNL     1      61.861  22.381   9.395  0.00  0.00    +0.162 A 
ATOM     10  C3  UNL     1      61.528  21.122   8.882  0.00  0.00    +0.055 A 
ATOM     11  C4  UNL     1      61.577  19.971   9.689  0.00  0.00    -0.015 A 
ATOM     12  C5  UNL     1      61.975  20.101  11.028  0.00  0.00    +0.010 A 
ATOM     13  C6  UNL     1      62.315  21.349  11.551  0.00  0.00    +0.049 A 
ATOM     14  C7  UNL     1      62.259  22.477  10.735  0.00  0.00    +0.158 A 
BRANCH   9  16
ATOM     15  C1  UNL     1      62.842  23.723   7.687  0.00  0.00    +0.277 C 
ATOM     16  O1  UNL     1      61.843  23.550   8.681  0.00  0.00    -0.491 OA
ENDBRANCH   9  16
BRANCH  14  17
ATOM     17  O2  UNL     1      62.593  23.703  11.246  0.00  0.00    -0.503 OA
ATOM     18  H7  UNL     1      63.260  24.114  10.677  0.00  0.00    +0.292 HD
ENDBRANCH  14  17
ENDBRANCH   1  11
BRANCH   8  19
ATOM     19  C14 UNL     1      57.917  15.579   7.494  0.00  0.00    -0.015 A 
ATOM     20  C15 UNL     1      57.513  14.526   8.333  0.00  0.00    +0.055 A 
ATOM     21  C16 UNL     1      57.185  13.269   7.811  0.00  0.00    +0.162 A 
ATOM     22  C17 UNL     1      57.258  13.076   6.425  0.00  0.00    +0.158 A 
ATOM     23  C18 UNL     1      57.656  14.107   5.576  0.00  0.00    +0.049 A 
ATOM     24  C19 UNL     1      57.984  15.354   6.110  0.00  0.00    +0.010 A 
BRANCH  22  25
ATOM     25  O5  UNL     1      56.934  11.853   5.903  0.00  0.00    -0.503 OA
ATOM     26  H19 UNL     1      57.270  11.158   6.489  0.00  0.00    +0.292 HD
ENDBRANCH  22  25
BRANCH  21  27
ATOM     27  O6  UNL     1      56.782  12.191   8.553  0.00  0.00    -0.491 OA
ATOM     28  C20 UNL     1      55.831  12.425   9.582  0.00  0.00    +0.277 C 
ENDBRANCH  21  27
ENDBRANCH   8  19
TORSDOF 6
ENDMDL
MODEL 6
REMARK VINA RESULT:    -8.006      4.810      7.376
REMARK INTER + INTRA:         -11.032
REMARK INTER:                 -10.457
REMARK INTRA:                  -0.575
REMARK UNBOUND:                -0.687
REMARK  Name = data/mahkota_dewa_dn/results/docking/ligands/pdb/Pinoresinol.pdb
REMARK  8 active torsions:
REMARK  status: ('A' for Active; 'I' for Inactive)
REMARK    1  A    between atoms: C1_1  and  O1_2
REMARK    2  A    between atoms: O1_2  and  C2_3
REMARK    3  A    between atoms: C4_5  and  C8_10
REMARK    4  A    between atoms: C7_8  and  O2_9
REMARK    5  A    between atoms: C13_17  and  C14_18
REMARK    6  A    between atoms: C16_20  and  O6_25
REMARK    7  A    between atoms: C17_21  and  O5_24
REMARK    8  A    between atoms: O6_25  and  C20_26
REMARK                            x       y       z     vdW  Elec       q    Type
REMARK                         _______ _______ _______ _____ _____    ______ ____
ROOT
ATOM      1  C8  UNL     1      60.904  18.100   8.960  0.00  0.00    +0.154 C 
ATOM      2  O3  UNL     1      60.954  17.202  10.120  0.00  0.00    -0.371 OA
ATOM      3  C9  UNL     1      59.803  16.306  10.064  0.00  0.00    +0.167 C 
ATOM      4  C10 UNL     1      59.324  16.448   8.653  0.00  0.00    +0.056 C 
ATOM      5  C11 UNL     1      59.493  17.924   8.467  0.00  0.00    +0.056 C 
ATOM      6  C12 UNL     1      59.015  18.065   7.056  0.00  0.00    +0.167 C 
ATOM      7  O4  UNL     1      57.863  17.170   7.000  0.00  0.00    -0.371 OA
ATOM      8  C13 UNL     1      57.913  16.272   8.160  0.00  0.00    +0.154 C 
ENDROOT
BRANCH   1  11
ATOM      9  C2  UNL     1      62.275  21.177  10.795  0.00  0.00    +0.162 A 
ATOM     10  C3  UNL     1      62.006  19.847  10.453  0.00  0.00    +0.055 A 
ATOM     11  C4  UNL     1      61.224  19.529   9.329  0.00  0.00    -0.015 A 
ATOM     12  C5  UNL     1      60.705  20.573   8.548  0.00  0.00    +0.010 A 
ATOM     13  C6  UNL     1      60.961  21.904   8.880  0.00  0.00    +0.049 A 
ATOM     14  C7  UNL     1      61.739  22.198   9.998  0.00  0.00    +0.158 A 
BRANCH   9  16
ATOM     15  C1  UNL     1      64.426  21.688  11.684  0.00  0.00    +0.277 C 
ATOM     16  O1  UNL     1      63.023  21.577  11.871  0.00  0.00    -0.491 OA
ENDBRANCH   9  16
BRANCH  14  17
ATOM     17  O2  UNL     1      61.991  23.504  10.326  0.00  0.00    -0.503 OA
ATOM     18  H7  UNL     1      62.939  23.679  10.229  0.00  0.00    +0.292 HD
ENDBRANCH  14  17
ENDBRANCH   1  11
BRANCH   8  19
ATOM     19  C14 UNL     1      57.594  14.843   7.791  0.00  0.00    -0.015 A 
ATOM     20  C15 UNL     1      57.546  14.415   6.452  0.00  0.00    +0.055 A 
ATOM     21  C16 UNL     1      57.271  13.082   6.127  0.00  0.00    +0.162 A 
ATOM     22  C17 UNL     1      57.051  12.168   7.166  0.00  0.00    +0.158 A 
ATOM     23  C18 UNL     1      57.094  12.571   8.499  0.00  0.00    +0.049 A 
ATOM     24  C19 UNL     1      57.365  13.905   8.809  0.00  0.00    +0.010 A 
BRANCH  22  25
ATOM     25  O5  UNL     1      56.787  10.859   6.861  0.00  0.00    -0.503 OA
ATOM     26  H19 UNL     1      56.145  10.826   6.136  0.00  0.00    +0.292 HD
ENDBRANCH  22  25
BRANCH  21  27
ATOM     27  O6  UNL     1      57.206  12.580   4.855  0.00  0.00    -0.491 OA
ATOM     28  C20 UNL     1      56.058  12.904   4.083  0.00  0.00    +0.277 C 
ENDBRANCH  21  27
ENDBRANCH   8  19
TORSDOF 6
ENDMDL
MODEL 7
REMARK VINA RESULT:    -7.918      2.164      3.184
REMARK INTER + INTRA:         -10.920
REMARK INTER:                 -10.188
REMARK INTRA:                  -0.732
REMARK UNBOUND:                -0.687
REMARK  Name = data/mahkota_dewa_dn/results/docking/ligands/pdb/Pinoresinol.pdb
REMARK  8 active torsions:
REMARK  status: ('A' for Active; 'I' for Inactive)
REMARK    1  A    between atoms: C1_1  and  O1_2
REMARK    2  A    between atoms: O1_2  and  C2_3
REMARK    3  A    between atoms: C4_5  and  C8_10
REMARK    4  A    between atoms: C7_8  and  O2_9
REMARK    5  A    between atoms: C13_17  and  C14_18
REMARK    6  A    between atoms: C16_20  and  O6_25
REMARK    7  A    between atoms: C17_21  and  O5_24
REMARK    8  A    between atoms: O6_25  and  C20_26
REMARK                            x       y       z     vdW  Elec       q    Type
REMARK                         _______ _______ _______ _____ _____    ______ ____
ROOT
ATOM      1  C8  UNL     1      60.157  22.587   7.211  0.00  0.00    +0.154 C 
ATOM      2  O3  UNL     1      59.495  21.859   6.122  0.00  0.00    -0.371 OA
ATOM      3  C9  UNL     1      59.720  20.430   6.314  0.00  0.00    +0.167 C 
ATOM      4  C10 UNL     1      60.178  20.342   7.736  0.00  0.00    +0.056 C 
ATOM      5  C11 UNL     1      61.068  21.544   7.800  0.00  0.00    +0.056 C 
ATOM      6  C12 UNL     1      61.525  21.456   9.222  0.00  0.00    +0.167 C 
ATOM      7  O4  UNL     1      61.751  20.027   9.414  0.00  0.00    -0.371 OA
ATOM      8  C13 UNL     1      61.089  19.299   8.325  0.00  0.00    +0.154 C 
ENDROOT
BRANCH   1  11
ATOM      9  C2  UNL     1      62.299  24.933   5.060  0.00  0.00    +0.162 A 
ATOM     10  C3  UNL     1      61.595  23.804   5.494  0.00  0.00    +0.055 A 
ATOM     11  C4  UNL     1      60.900  23.805   6.716  0.00  0.00    -0.015 A 
ATOM     12  C5  UNL     1      60.924  24.964   7.507  0.00  0.00    +0.010 A 
ATOM     13  C6  UNL     1      61.625  26.096   7.088  0.00  0.00    +0.049 A 
ATOM     14  C7  UNL     1      62.308  26.074   5.874  0.00  0.00    +0.158 A 
BRANCH   9  16
ATOM     15  C1  UNL     1      64.176  24.226   3.773  0.00  0.00    +0.277 C 
ATOM     16  O1  UNL     1      63.003  25.019   3.888  0.00  0.00    -0.491 OA
ENDBRANCH   9  16
BRANCH  14  17
ATOM     17  O2  UNL     1      62.997  27.184   5.462  0.00  0.00    -0.503 OA
ATOM     18  H7  UNL     1      63.906  27.133   5.792  0.00  0.00    +0.292 HD
ENDBRANCH  14  17
ENDBRANCH   1  11
BRANCH   8  19
ATOM     19  C14 UNL     1      60.346  18.081   8.820  0.00  0.00    -0.015 A 
ATOM     20  C15 UNL     1      59.267  17.530   8.106  0.00  0.00    +0.055 A 
ATOM     21  C16 UNL     1      58.603  16.387   8.566  0.00  0.00    +0.162 A 
ATOM     22  C17 UNL     1      59.040  15.788   9.755  0.00  0.00    +0.158 A 
ATOM     23  C18 UNL     1      60.108  16.317  10.477  0.00  0.00    +0.049 A 
ATOM     24  C19 UNL     1      60.758  17.460  10.009  0.00  0.00    +0.010 A 
BRANCH  22  25
ATOM     25  O5  UNL     1      58.402  14.665  10.212  0.00  0.00    -0.503 OA
ATOM     26  H19 UNL     1      58.192  14.091   9.459  0.00  0.00    +0.292 HD
ENDBRANCH  22  25
BRANCH  21  27
ATOM     27  O6  UNL     1      57.546  15.784   7.937  0.00  0.00    -0.491 OA
ATOM     28  C20 UNL     1      57.781  15.238   6.646  0.00  0.00    +0.277 C 
ENDBRANCH  21  27
ENDBRANCH   8  19
TORSDOF 6
ENDMDL
MODEL 8
REMARK VINA RESULT:    -7.786      3.209      9.574
REMARK INTER + INTRA:         -10.749
REMARK INTER:                 -10.088
REMARK INTRA:                  -0.661
REMARK UNBOUND:                -0.687
REMARK  Name = data/mahkota_dewa_dn/results/docking/ligands/pdb/Pinoresinol.pdb
REMARK  8 active torsions:
REMARK  status: ('A' for Active; 'I' for Inactive)
REMARK    1  A    between atoms: C1_1  and  O1_2
REMARK    2  A    between atoms: O1_2  and  C2_3
REMARK    3  A    between atoms: C4_5  and  C8_10
REMARK    4  A    between atoms: C7_8  and  O2_9
REMARK    5  A    between atoms: C13_17  and  C14_18
REMARK    6  A    between atoms: C16_20  and  O6_25
REMARK    7  A    between atoms: C17_21  and  O5_24
REMARK    8  A    between atoms: O6_25  and  C20_26
REMARK                            x       y       z     vdW  Elec       q    Type
REMARK                         _______ _______ _______ _____ _____    ______ ____
ROOT
ATOM      1  C8  UNL     1      59.607  17.257   7.744  0.00  0.00    +0.154 C 
ATOM      2  O3  UNL     1      58.984  18.158   6.767  0.00  0.00    -0.371 OA
ATOM      3  C9  UNL     1      59.321  19.532   7.122  0.00  0.00    +0.167 C 
ATOM      4  C10 UNL     1      60.465  19.372   8.074  0.00  0.00    +0.056 C 
ATOM      5  C11 UNL     1      59.986  18.191   8.861  0.00  0.00    +0.056 C 
ATOM      6  C12 UNL     1      61.129  18.030   9.813  0.00  0.00    +0.167 C 
ATOM      7  O4  UNL     1      61.467  19.405  10.168  0.00  0.00    -0.371 OA
ATOM      8  C13 UNL     1      60.843  20.306   9.192  0.00  0.00    +0.154 C 
ENDROOT
BRANCH   1  11
ATOM      9  C2  UNL     1      56.905  14.534   7.726  0.00  0.00    +0.162 A 
ATOM     10  C3  UNL     1      57.783  15.534   7.294  0.00  0.00    +0.055 A 
ATOM     11  C4  UNL     1      58.671  16.158   8.188  0.00  0.00    -0.015 A 
ATOM     12  C5  UNL     1      58.663  15.764   9.535  0.00  0.00    +0.010 A 
ATOM     13  C6  UNL     1      57.790  14.771   9.980  0.00  0.00    +0.049 A 
ATOM     14  C7  UNL     1      56.917  14.165   9.078  0.00  0.00    +0.158 A 
BRANCH   9  16
ATOM     15  C1  UNL     1      55.627  14.510   5.715  0.00  0.00    +0.277 C 
ATOM     16  O1  UNL     1      56.007  13.876   6.927  0.00  0.00    -0.491 OA
ENDBRANCH   9  16
BRANCH  14  17
ATOM     17  O2  UNL     1      56.059  13.191   9.514  0.00  0.00    -0.503 OA
ATOM     18  H7  UNL     1      55.253  13.215   8.978  0.00  0.00    +0.292 HD
ENDBRANCH  14  17
ENDBRANCH   1  11
BRANCH   8  19
ATOM     19  C14 UNL     1      61.779  21.405   8.748  0.00  0.00    -0.015 A 
ATOM     20  C15 UNL     1      61.302  22.626   8.239  0.00  0.00    +0.055 A 
ATOM     21  C16 UNL     1      62.182  23.643   7.853  0.00  0.00    +0.162 A 
ATOM     22  C17 UNL     1      63.560  23.429   7.991  0.00  0.00    +0.158 A 
ATOM     23  C18 UNL     1      64.053  22.227   8.493  0.00  0.00    +0.049 A 
ATOM     24  C19 UNL     1      63.165  21.219   8.870  0.00  0.00    +0.010 A 
BRANCH  22  25
ATOM     25  O5  UNL     1      64.430  24.420   7.622  0.00  0.00    -0.503 OA
ATOM     26  H19 UNL     1      64.527  25.046   8.355  0.00  0.00    +0.292 HD
ENDBRANCH  22  25
BRANCH  21  27
ATOM     27  O6  UNL     1      61.805  24.860   7.350  0.00  0.00    -0.491 OA
ATOM     28  C20 UNL     1      61.171  25.767   8.242  0.00  0.00    +0.277 C 
ENDBRANCH  21  27
ENDBRANCH   8  19
TORSDOF 6
ENDMDL
MODEL 9
REMARK VINA RESULT:    -7.705      2.893      5.086
REMARK INTER + INTRA:         -10.644
REMARK INTER:                  -9.894
REMARK INTRA:                  -0.750
REMARK UNBOUND:                -0.687
REMARK  Name = data/mahkota_dewa_dn/results/docking/ligands/pdb/Pinoresinol.pdb
REMARK  8 active torsions:
REMARK  status: ('A' for Active; 'I' for Inactive)
REMARK    1  A    between atoms: C1_1  and  O1_2
REMARK    2  A    between atoms: O1_2  and  C2_3
REMARK    3  A    between atoms: C4_5  and  C8_10
REMARK    4  A    between atoms: C7_8  and  O2_9
REMARK    5  A    between atoms: C13_17  and  C14_18
REMARK    6  A    between atoms: C16_20  and  O6_25
REMARK    7  A    between atoms: C17_21  and  O5_24
REMARK    8  A    between atoms: O6_25  and  C20_26
REMARK                            x       y       z     vdW  Elec       q    Type
REMARK                         _______ _______ _______ _____ _____    ______ ____
ROOT
ATOM      1  C8  UNL     1      60.482  21.022   8.226  0.00  0.00    +0.154 C 
ATOM      2  O3  UNL     1      59.698  20.832   7.000  0.00  0.00    -0.371 OA
ATOM      3  C9  UNL     1      59.432  19.407   6.835  0.00  0.00    +0.167 C 
ATOM      4  C10 UNL     1      59.734  18.841   8.187  0.00  0.00    +0.056 C 
ATOM      5  C11 UNL     1      60.960  19.628   8.532  0.00  0.00    +0.056 C 
ATOM      6  C12 UNL     1      61.262  19.063   9.884  0.00  0.00    +0.167 C 
ATOM      7  O4  UNL     1      60.996  17.637   9.719  0.00  0.00    -0.371 OA
ATOM      8  C13 UNL     1      60.213  17.447   8.493  0.00  0.00    +0.154 C 
ENDROOT
BRANCH   1  11
ATOM      9  C2  UNL     1      62.518  24.272   8.121  0.00  0.00    +0.162 A 
ATOM     10  C3  UNL     1      61.466  23.371   8.325  0.00  0.00    +0.055 A 
ATOM     11  C4  UNL     1      61.614  22.003   8.036  0.00  0.00    -0.015 A 
ATOM     12  C5  UNL     1      62.841  21.547   7.530  0.00  0.00    +0.010 A 
ATOM     13  C6  UNL     1      63.896  22.436   7.318  0.00  0.00    +0.049 A 
ATOM     14  C7  UNL     1      63.729  23.788   7.611  0.00  0.00    +0.158 A 
BRANCH   9  16
ATOM     15  C1  UNL     1      61.197  26.253   8.238  0.00  0.00    +0.277 C 
ATOM     16  O1  UNL     1      62.460  25.618   8.373  0.00  0.00    -0.491 OA
ENDBRANCH   9  16
BRANCH  14  17
ATOM     17  O2  UNL     1      64.764  24.661   7.402  0.00  0.00    -0.503 OA
ATOM     18  H7  UNL     1      64.461  25.562   7.588  0.00  0.00    +0.292 HD
ENDBRANCH  14  17
ENDBRANCH   1  11
BRANCH   8  19
ATOM     19  C14 UNL     1      59.081  16.466   8.683  0.00  0.00    -0.015 A 
ATOM     20  C15 UNL     1      58.082  16.287   7.709  0.00  0.00    +0.055 A 
ATOM     21  C16 UNL     1      57.052  15.357   7.890  0.00  0.00    +0.162 A 
ATOM     22  C17 UNL     1      57.035  14.592   9.064  0.00  0.00    +0.158 A 
ATOM     23  C18 UNL     1      58.016  14.753  10.041  0.00  0.00    +0.049 A 
ATOM     24  C19 UNL     1      59.035  15.687   9.850  0.00  0.00    +0.010 A 
BRANCH  22  25
ATOM     25  O5  UNL     1      56.036  13.674   9.250  0.00  0.00    -0.503 OA
ATOM     26  H19 UNL     1      55.673  13.422   8.388  0.00  0.00    +0.292 HD
ENDBRANCH  22  25
BRANCH  21  27
ATOM     27  O6  UNL     1      56.042  15.117   6.997  0.00  0.00    -0.491 OA
ATOM     28  C20 UNL     1      55.686  16.174   6.116  0.00  0.00    +0.277 C 
ENDBRANCH  21  27
ENDBRANCH   8  19
TORSDOF 6
ENDMDL
