MODEL 1
REMARK VINA RESULT:    -8.531      0.000      0.000
REMARK INTER + INTRA:         -10.612
REMARK INTER:                 -10.276
REMARK INTRA:                  -0.336
REMARK UNBOUND:                -0.336
REMARK  Name = data/mahkota_dewa_dn/results/docking/ligands/pdb/Quercetin.pdb
REMARK  6 active torsions:
REMARK  status: ('A' for Active; 'I' for Inactive)
REMARK    1  A    between atoms: C3_3  and  O7_22
REMARK    2  A    between atoms: C4_4  and  O6_21
REMARK    3  A    between atoms: C6_6  and  C7_7
REMARK    4  A    between atoms: C8_8  and  O5_20
REMARK    5  A    between atoms: C11_12  and  O4_19
REMARK    6  A    between atoms: C13_14  and  O3_18
REMARK                            x       y       z     vdW  Elec       q    Type
REMARK                         _______ _______ _______ _____ _____    ______ ____
ROOT
ATOM      1  C7  UNL     1      61.601  20.068   9.740  0.00  0.00    +0.181 A 
ATOM      2  C8  UNL     1      61.088  20.603   8.616  0.00  0.00    +0.208 A 
ATOM      3  C9  UNL     1      60.140  19.793   7.818  0.00  0.00    +0.238 A 
ATOM      4  O1  UNL     1      59.651  20.244   6.783  0.00  0.00    -0.283 OA
ATOM      5  C10 UNL     1      59.813  18.453   8.306  0.00  0.00    +0.109 A 
ATOM      6  C11 UNL     1      58.924  17.617   7.624  0.00  0.00    +0.135 A 
ATOM      7  C12 UNL     1      58.636  16.347   8.119  0.00  0.00    +0.091 A 
ATOM      8  C13 UNL     1      59.246  15.925   9.297  0.00  0.00    +0.124 A 
ATOM      9  C14 UNL     1      60.134  16.750   9.983  0.00  0.00    +0.092 A 
ATOM     10  C15 UNL     1      60.416  18.021   9.483  0.00  0.00    +0.147 A 
ATOM     11  O2  UNL     1      61.298  18.791  10.198  0.00  0.00    -0.451 OA
ENDROOT
BRANCH   1  17
ATOM     12  C1  UNL     1      62.149  21.535  11.715  0.00  0.00    +0.015 A 
ATOM     13  C2  UNL     1      63.075  22.183  12.540  0.00  0.00    +0.050 A 
ATOM     14  C3  UNL     1      64.429  22.064  12.259  0.00  0.00    +0.158 A 
ATOM     15  C4  UNL     1      64.856  21.307  11.174  0.00  0.00    +0.159 A 
ATOM     16  C5  UNL     1      63.943  20.662  10.349  0.00  0.00    +0.060 A 
ATOM     17  C6  UNL     1      62.567  20.775  10.607  0.00  0.00    +0.025 A 
BRANCH  15  18
ATOM     18  O6  UNL     1      66.190  21.191  10.906  0.00  0.00    -0.503 OA
ATOM     19  H9  UNL     1      66.565  22.062  11.148  0.00  0.00    +0.292 HD
ENDBRANCH  15  18
BRANCH  14  20
ATOM     20  O7  UNL     1      65.384  22.672  13.026  0.00  0.00    -0.503 OA
ATOM     21  H10 UNL     1      66.244  22.554  12.586  0.00  0.00    +0.292 HD
ENDBRANCH  14  20
ENDBRANCH   1  17
BRANCH   8  22
ATOM     22  O3  UNL     1      58.997  14.691   9.821  0.00  0.00    -0.507 OA
ATOM     23  H6  UNL     1      59.252  14.015   9.171  0.00  0.00    +0.292 HD
ENDBRANCH   8  22
BRANCH   6  24
ATOM     24  O4  UNL     1      58.298  17.981   6.463  0.00  0.00    -0.506 OA
ATOM     25  H7  UNL     1      58.202  17.183   5.897  0.00  0.00    +0.292 HD
ENDBRANCH   6  24
BRANCH   2  26
ATOM     26  O5  UNL     1      61.402  21.861   8.136  0.00  0.00    -0.501 OA
ATOM     27  H8  UNL     1      60.575  22.381   8.213  0.00  0.00    +0.292 HD
ENDBRANCH   2  26
TORSDOF 6
ENDMDL
MODEL 2
REMARK VINA RESULT:    -8.422      1.301      3.133
REMARK INTER + INTRA:         -10.481
REMARK INTER:                 -10.148
REMARK INTRA:                  -0.332
REMARK UNBOUND:                -0.336
REMARK  Name = data/mahkota_dewa_dn/results/docking/ligands/pdb/Quercetin.pdb
REMARK  6 active torsions:
REMARK  status: ('A' for Active; 'I' for Inactive)
REMARK    1  A    between atoms: C3_3  and  O7_22
REMARK    2  A    between atoms: C4_4  and  O6_21
REMARK    3  A    between atoms: C6_6  and  C7_7
REMARK    4  A    between atoms: C8_8  and  O5_20
REMARK    5  A    between atoms: C11_12  and  O4_19
REMARK    6  A    between atoms: C13_14  and  O3_18
REMARK                            x       y       z     vdW  Elec       q    Type
REMARK                         _______ _______ _______ _____ _____    ______ ____
ROOT
ATOM      1  C7  UNL     1      61.566  20.058   9.644  0.00  0.00    +0.181 A 
ATOM      2  C8  UNL     1      61.185  18.786   9.861  0.00  0.00    +0.208 A 
ATOM      3  C9  UNL     1      60.219  18.168   8.925  0.00  0.00    +0.238 A 
ATOM      4  O1  UNL     1      59.844  17.009   9.089  0.00  0.00    -0.283 OA
ATOM      5  C10 UNL     1      59.738  18.985   7.810  0.00  0.00    +0.109 A 
ATOM      6  C11 UNL     1      58.829  18.488   6.871  0.00  0.00    +0.135 A 
ATOM      7  C12 UNL     1      58.392  19.295   5.823  0.00  0.00    +0.091 A 
ATOM      8  C13 UNL     1      58.872  20.598   5.726  0.00  0.00    +0.124 A 
ATOM      9  C14 UNL     1      59.776  21.103   6.657  0.00  0.00    +0.092 A 
ATOM     10  C15 UNL     1      60.210  20.290   7.703  0.00  0.00    +0.147 A 
ATOM     11  O2  UNL     1      61.100  20.837   8.591  0.00  0.00    -0.451 OA
ENDROOT
BRANCH   1  17
ATOM     12  C1  UNL     1      62.084  21.429  11.695  0.00  0.00    +0.015 A 
ATOM     13  C2  UNL     1      62.991  22.094  12.527  0.00  0.00    +0.050 A 
ATOM     14  C3  UNL     1      64.337  22.106  12.186  0.00  0.00    +0.158 A 
ATOM     15  C4  UNL     1      64.774  21.461  11.034  0.00  0.00    +0.159 A 
ATOM     16  C5  UNL     1      63.879  20.800  10.203  0.00  0.00    +0.060 A 
ATOM     17  C6  UNL     1      62.511  20.783  10.520  0.00  0.00    +0.025 A 
BRANCH  15  18
ATOM     18  O6  UNL     1      66.100  21.474  10.708  0.00  0.00    -0.503 OA
ATOM     19  H9  UNL     1      66.150  22.036   9.909  0.00  0.00    +0.292 HD
ENDBRANCH  15  18
BRANCH  14  20
ATOM     20  O7  UNL     1      65.273  22.738  12.957  0.00  0.00    -0.503 OA
ATOM     21  H10 UNL     1      65.434  22.192  13.745  0.00  0.00    +0.292 HD
ENDBRANCH  14  20
ENDBRANCH   1  17
BRANCH   8  22
ATOM     22  O3  UNL     1      58.474  21.426   4.718  0.00  0.00    -0.507 OA
ATOM     23  H6  UNL     1      57.849  22.079   5.075  0.00  0.00    +0.292 HD
ENDBRANCH   8  22
BRANCH   6  24
ATOM     24  O4  UNL     1      58.326  17.217   6.919  0.00  0.00    -0.506 OA
ATOM     25  H7  UNL     1      59.042  16.588   6.677  0.00  0.00    +0.292 HD
ENDBRANCH   6  24
BRANCH   2  26
ATOM     26  O5  UNL     1      61.621  18.009  10.919  0.00  0.00    -0.501 OA
ATOM     27  H8  UNL     1      61.176  18.377  11.712  0.00  0.00    +0.292 HD
ENDBRANCH   2  26
TORSDOF 6
ENDMDL
MODEL 3
REMARK VINA RESULT:    -8.371      2.698      8.116
REMARK INTER + INTRA:         -10.419
REMARK INTER:                 -10.268
REMARK INTRA:                  -0.150
REMARK UNBOUND:                -0.336
REMARK  Name = data/mahkota_dewa_dn/results/docking/ligands/pdb/Quercetin.pdb
REMARK  6 active torsions:
REMARK  status: ('A' for Active; 'I' for Inactive)
REMARK    1  A    between atoms: C3_3  and  O7_22
REMARK    2  A    between atoms: C4_4  and  O6_21
REMARK    3  A    between atoms: C6_6  and  C7_7
REMARK    4  A    between atoms: C8_8  and  O5_20
REMARK    5  A    between atoms: C11_12  and  O4_19
REMARK    6  A    between atoms: C13_14  and  O3_18
REMARK                            x       y       z     vdW  Elec       q    Type
REMARK                         _______ _______ _______ _____ _____    ______ ____
ROOT
ATOM      1  C7  UNL     1      58.201  15.820   7.909  0.00  0.00    +0.181 A 
ATOM      2  C8  UNL     1      58.008  16.798   7.005  0.00  0.00    +0.208 A 
ATOM      3  C9  UNL     1      58.754  18.066   7.166  0.00  0.00    +0.238 A 
ATOM      4  O1  UNL     1      58.603  18.986   6.362  0.00  0.00    -0.283 OA
ATOM      5  C10 UNL     1      59.666  18.177   8.305  0.00  0.00    +0.109 A 
ATOM      6  C11 UNL     1      60.418  19.333   8.537  0.00  0.00    +0.135 A 
ATOM      7  C12 UNL     1      61.275  19.404   9.632  0.00  0.00    +0.091 A 
ATOM      8  C13 UNL     1      61.372  18.311  10.489  0.00  0.00    +0.124 A 
ATOM      9  C14 UNL     1      60.626  17.155  10.267  0.00  0.00    +0.092 A 
ATOM     10  C15 UNL     1      59.770  17.091   9.168  0.00  0.00    +0.147 A 
ATOM     11  O2  UNL     1      59.060  15.931   8.998  0.00  0.00    -0.451 OA
ENDROOT
BRANCH   1  17
ATOM     12  C1  UNL     1      57.566  13.686   6.728  0.00  0.00    +0.015 A 
ATOM     13  C2  UNL     1      56.915  12.448   6.701  0.00  0.00    +0.050 A 
ATOM     14  C3  UNL     1      56.200  12.037   7.816  0.00  0.00    +0.158 A 
ATOM     15  C4  UNL     1      56.136  12.846   8.946  0.00  0.00    +0.159 A 
ATOM     16  C5  UNL     1      56.778  14.077   8.979  0.00  0.00    +0.060 A 
ATOM     17  C6  UNL     1      57.500  14.520   7.860  0.00  0.00    +0.025 A 
BRANCH  15  18
ATOM     18  O6  UNL     1      55.433  12.432  10.041  0.00  0.00    -0.503 OA
ATOM     19  H9  UNL     1      55.296  13.247  10.565  0.00  0.00    +0.292 HD
ENDBRANCH  15  18
BRANCH  14  20
ATOM     20  O7  UNL     1      55.541  10.838   7.853  0.00  0.00    -0.503 OA
ATOM     21  H10 UNL     1      56.171  10.140   7.604  0.00  0.00    +0.292 HD
ENDBRANCH  14  20
ENDBRANCH   1  17
BRANCH   8  22
ATOM     22  O3  UNL     1      62.197  18.332  11.574  0.00  0.00    -0.507 OA
ATOM     23  H6  UNL     1      61.790  17.814  12.289  0.00  0.00    +0.292 HD
ENDBRANCH   8  22
BRANCH   6  24
ATOM     24  O4  UNL     1      60.361  20.436   7.728  0.00  0.00    -0.506 OA
ATOM     25  H7  UNL     1      61.033  20.336   7.017  0.00  0.00    +0.292 HD
ENDBRANCH   6  24
BRANCH   2  26
ATOM     26  O5  UNL     1      57.137  16.711   5.934  0.00  0.00    -0.501 OA
ATOM     27  H8  UNL     1      57.639  16.249   5.229  0.00  0.00    +0.292 HD
ENDBRANCH   2  26
TORSDOF 6
ENDMDL
MODEL 4
REMARK VINA RESULT:    -8.359      2.222      3.542
REMARK INTER + INTRA:         -10.405
REMARK INTER:                 -10.129
REMARK INTRA:                  -0.276
REMARK UNBOUND:                -0.336
REMARK  Name = data/mahkota_dewa_dn/results/docking/ligands/pdb/Quercetin.pdb
REMARK  6 active torsions:
REMARK  status: ('A' for Active; 'I' for Inactive)
REMARK    1  A    between atoms: C3_3  and  O7_22
REMARK    2  A    between atoms: C4_4  and  O6_21
REMARK    3  A    between atoms: C6_6  and  C7_7
REMARK    4  A    between atoms: C8_8  and  O5_20
REMARK    5  A    between atoms: C11_12  and  O4_19
REMARK    6  A    between atoms: C13_14  and  O3_18
REMARK                            x       y       z     vdW  Elec       q    Type
REMARK                         _______ _______ _______ _____ _____    ______ ____
ROOT
ATOM      1  C7  UNL     1      61.373  19.947   9.091  0.00  0.00    +0.181 A 
ATOM      2  C8  UNL     1      61.593  19.099  10.113  0.00  0.00    +0.208 A 
ATOM      3  C9  UNL     1      60.837  17.827  10.150  0.00  0.00    +0.238 A 
ATOM      4  O1  UNL     1      61.007  17.026  11.068  0.00  0.00    -0.283 OA
ATOM      5  C10 UNL     1      59.893  17.567   9.062  0.00  0.00    +0.109 A 
ATOM      6  C11 UNL     1      59.138  16.391   9.007  0.00  0.00    +0.135 A 
ATOM      7  C12 UNL     1      58.248  16.177   7.957  0.00  0.00    +0.091 A 
ATOM      8  C13 UNL     1      58.123  17.148   6.967  0.00  0.00    +0.124 A 
ATOM      9  C14 UNL     1      58.870  18.323   7.013  0.00  0.00    +0.092 A 
ATOM     10  C15 UNL     1      59.759  18.530   8.067  0.00  0.00    +0.147 A 
ATOM     11  O2  UNL     1      60.468  19.704   8.063  0.00  0.00    -0.451 OA
ENDROOT
BRANCH   1  17
ATOM     12  C1  UNL     1      63.046  21.472   7.981  0.00  0.00    +0.015 A 
ATOM     13  C2  UNL     1      63.671  22.717   7.852  0.00  0.00    +0.050 A 
ATOM     14  C3  UNL     1      63.300  23.750   8.700  0.00  0.00    +0.158 A 
ATOM     15  C4  UNL     1      62.316  23.549   9.662  0.00  0.00    +0.159 A 
ATOM     16  C5  UNL     1      61.692  22.315   9.798  0.00  0.00    +0.060 A 
ATOM     17  C6  UNL     1      62.057  21.251   8.958  0.00  0.00    +0.025 A 
BRANCH  15  18
ATOM     18  O6  UNL     1      61.953  24.572  10.491  0.00  0.00    -0.503 OA
ATOM     19  H9  UNL     1      61.137  24.933  10.090  0.00  0.00    +0.292 HD
ENDBRANCH  15  18
BRANCH  14  20
ATOM     20  O7  UNL     1      63.873  24.990   8.626  0.00  0.00    -0.503 OA
ATOM     21  H10 UNL     1      63.426  25.487   7.918  0.00  0.00    +0.292 HD
ENDBRANCH  14  20
ENDBRANCH   1  17
BRANCH   8  22
ATOM     22  O3  UNL     1      57.266  16.985   5.919  0.00  0.00    -0.507 OA
ATOM     23  H6  UNL     1      56.361  16.899   6.262  0.00  0.00    +0.292 HD
ENDBRANCH   8  22
BRANCH   6  24
ATOM     24  O4  UNL     1      59.221  15.405   9.952  0.00  0.00    -0.506 OA
ATOM     25  H7  UNL     1      60.168  15.170  10.075  0.00  0.00    +0.292 HD
ENDBRANCH   6  24
BRANCH   2  26
ATOM     26  O5  UNL     1      62.470  19.341  11.154  0.00  0.00    -0.501 OA
ATOM     27  H8  UNL     1      61.904  19.507  11.937  0.00  0.00    +0.292 HD
ENDBRANCH   2  26
TORSDOF 6
ENDMDL
MODEL 5
REMARK VINA RESULT:    -8.076      3.379      4.493
REMARK INTER + INTRA:         -10.064
REMARK INTER:                  -9.756
REMARK INTRA:                  -0.309
REMARK UNBOUND:                -0.336
REMARK  Name = data/mahkota_dewa_dn/results/docking/ligands/pdb/Quercetin.pdb
REMARK  6 active torsions:
REMARK  status: ('A' for Active; 'I' for Inactive)
REMARK    1  A    between atoms: C3_3  and  O7_22
REMARK    2  A    between atoms: C4_4  and  O6_21
REMARK    3  A    between atoms: C6_6  and  C7_7
REMARK    4  A    between atoms: C8_8  and  O5_20
REMARK    5  A    between atoms: C11_12  and  O4_19
REMARK    6  A    between atoms: C13_14  and  O3_18
REMARK                            x       y       z     vdW  Elec       q    Type
REMARK                         _______ _______ _______ _____ _____    ______ ____
ROOT
ATOM      1  C7  UNL     1      60.134  20.990   7.021  0.00  0.00    +0.181 A 
ATOM      2  C8  UNL     1      59.298  20.402   6.144  0.00  0.00    +0.208 A 
ATOM      3  C9  UNL     1      58.862  19.012   6.408  0.00  0.00    +0.238 A 
ATOM      4  O1  UNL     1      58.101  18.438   5.630  0.00  0.00    -0.283 OA
ATOM      5  C10 UNL     1      59.368  18.360   7.616  0.00  0.00    +0.109 A 
ATOM      6  C11 UNL     1      59.008  17.051   7.953  0.00  0.00    +0.135 A 
ATOM      7  C12 UNL     1      59.510  16.462   9.111  0.00  0.00    +0.091 A 
ATOM      8  C13 UNL     1      60.372  17.193   9.925  0.00  0.00    +0.124 A 
ATOM      9  C14 UNL     1      60.737  18.497   9.598  0.00  0.00    +0.092 A 
ATOM     10  C15 UNL     1      60.230  19.081   8.437  0.00  0.00    +0.147 A 
ATOM     11  O2  UNL     1      60.622  20.366   8.163  0.00  0.00    -0.451 OA
ENDROOT
BRANCH   1  17
ATOM     12  C1  UNL     1      61.675  22.666   5.939  0.00  0.00    +0.015 A 
ATOM     13  C2  UNL     1      62.139  23.976   5.775  0.00  0.00    +0.050 A 
ATOM     14  C3  UNL     1      61.565  24.994   6.524  0.00  0.00    +0.158 A 
ATOM     15  C4  UNL     1      60.541  24.713   7.422  0.00  0.00    +0.159 A 
ATOM     16  C5  UNL     1      60.077  23.415   7.591  0.00  0.00    +0.060 A 
ATOM     17  C6  UNL     1      60.647  22.366   6.853  0.00  0.00    +0.025 A 
BRANCH  15  18
ATOM     18  O6  UNL     1      59.979  25.721   8.152  0.00  0.00    -0.503 OA
ATOM     19  H9  UNL     1      60.714  26.067   8.698  0.00  0.00    +0.292 HD
ENDBRANCH  15  18
BRANCH  14  20
ATOM     20  O7  UNL     1      61.973  26.295   6.410  0.00  0.00    -0.503 OA
ATOM     21  H10 UNL     1      62.286  26.590   7.283  0.00  0.00    +0.292 HD
ENDBRANCH  14  20
ENDBRANCH   1  17
BRANCH   8  22
ATOM     22  O3  UNL     1      60.889  16.661  11.068  0.00  0.00    -0.507 OA
ATOM     23  H6  UNL     1      60.255  16.020  11.433  0.00  0.00    +0.292 HD
ENDBRANCH   8  22
BRANCH   6  24
ATOM     24  O4  UNL     1      58.167  16.289   7.190  0.00  0.00    -0.506 OA
ATOM     25  H7  UNL     1      58.201  16.618   6.264  0.00  0.00    +0.292 HD
ENDBRANCH   6  24
BRANCH   2  26
ATOM     26  O5  UNL     1      58.826  21.002   4.991  0.00  0.00    -0.501 OA
ATOM     27  H8  UNL     1      59.567  21.553   4.663  0.00  0.00    +0.292 HD
ENDBRANCH   2  26
TORSDOF 6
ENDMDL
MODEL 6
REMARK VINA RESULT:    -8.063      3.297      6.761
REMARK INTER + INTRA:         -10.048
REMARK INTER:                 -10.022
REMARK INTRA:                  -0.026
REMARK UNBOUND:                -0.336
REMARK  Name = data/mahkota_dewa_dn/results/docking/ligands/pdb/Quercetin.pdb
REMARK  6 active torsions:
REMARK  status: ('A' for Active; 'I' for Inactive)
REMARK    1  A    between atoms: C3_3  and  O7_22
REMARK    2  A    between atoms: C4_4  and  O6_21
REMARK    3  A    between atoms: C6_6  and  C7_7
REMARK    4  A    between atoms: C8_8  and  O5_20
REMARK    5  A    between atoms: C11_12  and  O4_19
REMARK    6  A    between atoms: C13_14  and  O3_18
REMARK                            x       y       z     vdW  Elec       q    Type
REMARK                         _______ _______ _______ _____ _____    ______ ____
ROOT
ATOM      1  C7  UNL     1      62.099  21.402   9.377  0.00  0.00    +0.181 A 
ATOM      2  C8  UNL     1      62.027  22.454  10.213  0.00  0.00    +0.208 A 
ATOM      3  C9  UNL     1      62.500  23.772   9.731  0.00  0.00    +0.238 A 
ATOM      4  O1  UNL     1      62.454  24.758  10.465  0.00  0.00    -0.283 OA
ATOM      5  C10 UNL     1      63.016  23.849   8.364  0.00  0.00    +0.109 A 
ATOM      6  C11 UNL     1      63.480  25.050   7.819  0.00  0.00    +0.135 A 
ATOM      7  C12 UNL     1      63.966  25.086   6.514  0.00  0.00    +0.091 A 
ATOM      8  C13 UNL     1      63.982  23.913   5.764  0.00  0.00    +0.124 A 
ATOM      9  C14 UNL     1      63.523  22.711   6.299  0.00  0.00    +0.092 A 
ATOM     10  C15 UNL     1      63.038  22.683   7.606  0.00  0.00    +0.147 A 
ATOM     11  O2  UNL     1      62.600  21.474   8.082  0.00  0.00    -0.451 OA
ENDROOT
BRANCH   1  17
ATOM     12  C1  UNL     1      62.035  19.461  10.985  0.00  0.00    +0.015 A 
ATOM     13  C2  UNL     1      61.608  18.177  11.338  0.00  0.00    +0.050 A 
ATOM     14  C3  UNL     1      60.805  17.466  10.457  0.00  0.00    +0.158 A 
ATOM     15  C4  UNL     1      60.429  18.028   9.242  0.00  0.00    +0.159 A 
ATOM     16  C5  UNL     1      60.851  19.302   8.884  0.00  0.00    +0.060 A 
ATOM     17  C6  UNL     1      61.672  20.037   9.753  0.00  0.00    +0.025 A 
BRANCH  15  18
ATOM     18  O6  UNL     1      59.635  17.324   8.382  0.00  0.00    -0.503 OA
ATOM     19  H9  UNL     1      59.192  18.009   7.842  0.00  0.00    +0.292 HD
ENDBRANCH  15  18
BRANCH  14  20
ATOM     20  O7  UNL     1      60.355  16.206  10.743  0.00  0.00    -0.503 OA
ATOM     21  H10 UNL     1      59.490  16.091  10.313  0.00  0.00    +0.292 HD
ENDBRANCH  14  20
ENDBRANCH   1  17
BRANCH   8  22
ATOM     22  O3  UNL     1      64.448  23.897   4.483  0.00  0.00    -0.507 OA
ATOM     23  H6  UNL     1      64.130  23.091   4.042  0.00  0.00    +0.292 HD
ENDBRANCH   8  22
BRANCH   6  24
ATOM     24  O4  UNL     1      63.487  26.231   8.510  0.00  0.00    -0.506 OA
ATOM     25  H7  UNL     1      62.594  26.637   8.442  0.00  0.00    +0.292 HD
ENDBRANCH   6  24
BRANCH   2  26
ATOM     26  O5  UNL     1      61.556  22.391  11.511  0.00  0.00    -0.501 OA
ATOM     27  H8  UNL     1      60.584  22.293  11.430  0.00  0.00    +0.292 HD
ENDBRANCH   2  26
TORSDOF 6
ENDMDL
MODEL 7
REMARK VINA RESULT:    -7.948      5.032      7.220
REMARK INTER + INTRA:          -9.910
REMARK INTER:                  -9.755
REMARK INTRA:                  -0.154
REMARK UNBOUND:                -0.336
REMARK  Name = data/mahkota_dewa_dn/results/docking/ligands/pdb/Quercetin.pdb
REMARK  6 active torsions:
REMARK  status: ('A' for Active; 'I' for Inactive)
REMARK    1  A    between atoms: C3_3  and  O7_22
REMARK    2  A    between atoms: C4_4  and  O6_21
REMARK    3  A    between atoms: C6_6  and  C7_7
REMARK    4  A    between atoms: C8_8  and  O5_20
REMARK    5  A    between atoms: C11_12  and  O4_19
REMARK    6  A    between atoms: C13_14  and  O3_18
REMARK                            x       y       z     vdW  Elec       q    Type
REMARK                         _______ _______ _______ _____ _____    ______ ____
ROOT
ATOM      1  C7  UNL     1      63.225  23.583   8.322  0.00  0.00    +0.181 A 
ATOM      2  C8  UNL     1      62.669  23.937   9.496  0.00  0.00    +0.208 A 
ATOM      3  C9  UNL     1      63.143  23.271  10.730  0.00  0.00    +0.238 A 
ATOM      4  O1  UNL     1      62.659  23.563  11.823  0.00  0.00    -0.283 OA
ATOM      5  C10 UNL     1      64.197  22.265  10.597  0.00  0.00    +0.109 A 
ATOM      6  C11 UNL     1      64.713  21.587  11.705  0.00  0.00    +0.135 A 
ATOM      7  C12 UNL     1      65.716  20.634  11.540  0.00  0.00    +0.091 A 
ATOM      8  C13 UNL     1      66.194  20.369  10.260  0.00  0.00    +0.124 A 
ATOM      9  C14 UNL     1      65.686  21.038   9.149  0.00  0.00    +0.092 A 
ATOM     10  C15 UNL     1      64.683  21.991   9.322  0.00  0.00    +0.147 A 
ATOM     11  O2  UNL     1      64.219  22.619   8.195  0.00  0.00    -0.451 OA
ENDROOT
BRANCH   1  17
ATOM     12  C1  UNL     1      62.864  25.555   6.793  0.00  0.00    +0.015 A 
ATOM     13  C2  UNL     1      62.498  26.094   5.555  0.00  0.00    +0.050 A 
ATOM     14  C3  UNL     1      62.095  25.239   4.539  0.00  0.00    +0.158 A 
ATOM     15  C4  UNL     1      62.059  23.865   4.751  0.00  0.00    +0.159 A 
ATOM     16  C5  UNL     1      62.419  23.323   5.978  0.00  0.00    +0.060 A 
ATOM     17  C6  UNL     1      62.821  24.167   7.025  0.00  0.00    +0.025 A 
BRANCH  15  18
ATOM     18  O6  UNL     1      61.665  23.030   3.745  0.00  0.00    -0.503 OA
ATOM     19  H9  UNL     1      62.232  23.277   2.987  0.00  0.00    +0.292 HD
ENDBRANCH  15  18
BRANCH  14  20
ATOM     20  O7  UNL     1      61.725  25.703   3.306  0.00  0.00    -0.503 OA
ATOM     21  H10 UNL     1      61.396  24.949   2.787  0.00  0.00    +0.292 HD
ENDBRANCH  14  20
ENDBRANCH   1  17
BRANCH   8  22
ATOM     22  O3  UNL     1      67.175  19.446  10.047  0.00  0.00    -0.507 OA
ATOM     23  H6  UNL     1      67.013  19.004   9.197  0.00  0.00    +0.292 HD
ENDBRANCH   8  22
BRANCH   6  24
ATOM     24  O4  UNL     1      64.279  21.808  12.984  0.00  0.00    -0.506 OA
ATOM     25  H7  UNL     1      65.027  21.642  13.600  0.00  0.00    +0.292 HD
ENDBRANCH   6  24
BRANCH   2  26
ATOM     26  O5  UNL     1      61.662  24.874   9.633  0.00  0.00    -0.501 OA
ATOM     27  H8  UNL     1      61.382  25.090   8.719  0.00  0.00    +0.292 HD
ENDBRANCH   2  26
TORSDOF 6
ENDMDL
MODEL 8
REMARK VINA RESULT:    -7.700      2.760      7.096
REMARK INTER + INTRA:          -9.611
REMARK INTER:                  -9.280
REMARK INTRA:                  -0.332
REMARK UNBOUND:                -0.336
REMARK  Name = data/mahkota_dewa_dn/results/docking/ligands/pdb/Quercetin.pdb
REMARK  6 active torsions:
REMARK  status: ('A' for Active; 'I' for Inactive)
REMARK    1  A    between atoms: C3_3  and  O7_22
REMARK    2  A    between atoms: C4_4  and  O6_21
REMARK    3  A    between atoms: C6_6  and  C7_7
REMARK    4  A    between atoms: C8_8  and  O5_20
REMARK    5  A    between atoms: C11_12  and  O4_19
REMARK    6  A    between atoms: C13_14  and  O3_18
REMARK                            x       y       z     vdW  Elec       q    Type
REMARK                         _______ _______ _______ _____ _____    ______ ____
ROOT
ATOM      1  C7  UNL     1      62.539  21.665   9.210  0.00  0.00    +0.181 A 
ATOM      2  C8  UNL     1      62.410  21.921  10.525  0.00  0.00    +0.208 A 
ATOM      3  C9  UNL     1      63.602  21.785  11.391  0.00  0.00    +0.238 A 
ATOM      4  O1  UNL     1      63.525  22.007  12.599  0.00  0.00    -0.283 OA
ATOM      5  C10 UNL     1      64.858  21.380  10.759  0.00  0.00    +0.109 A 
ATOM      6  C11 UNL     1      66.038  21.231  11.493  0.00  0.00    +0.135 A 
ATOM      7  C12 UNL     1      67.216  20.843  10.858  0.00  0.00    +0.091 A 
ATOM      8  C13 UNL     1      67.199  20.608   9.486  0.00  0.00    +0.124 A 
ATOM      9  C14 UNL     1      66.028  20.754   8.745  0.00  0.00    +0.092 A 
ATOM     10  C15 UNL     1      64.853  21.143   9.388  0.00  0.00    +0.147 A 
ATOM     11  O2  UNL     1      63.730  21.270   8.611  0.00  0.00    -0.451 OA
ENDROOT
BRANCH   1  17
ATOM     12  C1  UNL     1      61.025  22.976   7.679  0.00  0.00    +0.015 A 
ATOM     13  C2  UNL     1      59.974  23.043   6.759  0.00  0.00    +0.050 A 
ATOM     14  C3  UNL     1      59.313  21.875   6.402  0.00  0.00    +0.158 A 
ATOM     15  C4  UNL     1      59.697  20.657   6.952  0.00  0.00    +0.159 A 
ATOM     16  C5  UNL     1      60.739  20.583   7.868  0.00  0.00    +0.060 A 
ATOM     17  C6  UNL     1      61.416  21.752   8.252  0.00  0.00    +0.025 A 
BRANCH  15  18
ATOM     18  O6  UNL     1      59.045  19.512   6.593  0.00  0.00    -0.503 OA
ATOM     19  H9  UNL     1      58.798  19.094   7.443  0.00  0.00    +0.292 HD
ENDBRANCH  15  18
BRANCH  14  20
ATOM     20  O7  UNL     1      58.278  21.873   5.509  0.00  0.00    -0.503 OA
ATOM     21  H10 UNL     1      58.516  21.283   4.773  0.00  0.00    +0.292 HD
ENDBRANCH  14  20
ENDBRANCH   1  17
BRANCH   8  22
ATOM     22  O3  UNL     1      68.325  20.228   8.818  0.00  0.00    -0.507 OA
ATOM     23  H6  UNL     1      68.077  19.622   8.100  0.00  0.00    +0.292 HD
ENDBRANCH   8  22
BRANCH   6  24
ATOM     24  O4  UNL     1      66.110  21.448  12.842  0.00  0.00    -0.506 OA
ATOM     25  H7  UNL     1      66.896  22.010  13.026  0.00  0.00    +0.292 HD
ENDBRANCH   6  24
BRANCH   2  26
ATOM     26  O5  UNL     1      61.225  22.288  11.136  0.00  0.00    -0.501 OA
ATOM     27  H8  UNL     1      60.941  21.500  11.645  0.00  0.00    +0.292 HD
ENDBRANCH   2  26
TORSDOF 6
ENDMDL
MODEL 9
REMARK VINA RESULT:    -7.621      4.691      6.704
REMARK INTER + INTRA:          -9.516
REMARK INTER:                  -9.185
REMARK INTRA:                  -0.332
REMARK UNBOUND:                -0.336
REMARK  Name = data/mahkota_dewa_dn/results/docking/ligands/pdb/Quercetin.pdb
REMARK  6 active torsions:
REMARK  status: ('A' for Active; 'I' for Inactive)
REMARK    1  A    between atoms: C3_3  and  O7_22
REMARK    2  A    between atoms: C4_4  and  O6_21
REMARK    3  A    between atoms: C6_6  and  C7_7
REMARK    4  A    between atoms: C8_8  and  O5_20
REMARK    5  A    between atoms: C11_12  and  O4_19
REMARK    6  A    between atoms: C13_14  and  O3_18
REMARK                            x       y       z     vdW  Elec       q    Type
REMARK                         _______ _______ _______ _____ _____    ______ ____
ROOT
ATOM      1  C7  UNL     1      64.207  23.209   7.227  0.00  0.00    +0.181 A 
ATOM      2  C8  UNL     1      63.770  24.358   7.777  0.00  0.00    +0.208 A 
ATOM      3  C9  UNL     1      63.071  24.296   9.080  0.00  0.00    +0.238 A 
ATOM      4  O1  UNL     1      62.654  25.322   9.615  0.00  0.00    -0.283 OA
ATOM      5  C10 UNL     1      62.901  22.980   9.697  0.00  0.00    +0.109 A 
ATOM      6  C11 UNL     1      62.259  22.821  10.929  0.00  0.00    +0.135 A 
ATOM      7  C12 UNL     1      62.114  21.552  11.486  0.00  0.00    +0.091 A 
ATOM      8  C13 UNL     1      62.616  20.450  10.800  0.00  0.00    +0.124 A 
ATOM      9  C14 UNL     1      63.256  20.597   9.571  0.00  0.00    +0.092 A 
ATOM     10  C15 UNL     1      63.398  21.871   9.020  0.00  0.00    +0.147 A 
ATOM     11  O2  UNL     1      64.035  21.958   7.809  0.00  0.00    -0.451 OA
ENDROOT
BRANCH   1  17
ATOM     12  C1  UNL     1      64.194  23.114   4.708  0.00  0.00    +0.015 A 
ATOM     13  C2  UNL     1      64.864  23.076   3.480  0.00  0.00    +0.050 A 
ATOM     14  C3  UNL     1      66.251  23.078   3.468  0.00  0.00    +0.158 A 
ATOM     15  C4  UNL     1      66.964  23.122   4.662  0.00  0.00    +0.159 A 
ATOM     16  C5  UNL     1      66.306  23.158   5.885  0.00  0.00    +0.060 A 
ATOM     17  C6  UNL     1      64.902  23.147   5.924  0.00  0.00    +0.025 A 
BRANCH  15  18
ATOM     18  O6  UNL     1      68.329  23.128   4.641  0.00  0.00    -0.503 OA
ATOM     19  H9  UNL     1      68.561  22.862   3.728  0.00  0.00    +0.292 HD
ENDBRANCH  15  18
BRANCH  14  20
ATOM     20  O7  UNL     1      66.965  23.041   2.302  0.00  0.00    -0.503 OA
ATOM     21  H10 UNL     1      66.361  22.777   1.587  0.00  0.00    +0.292 HD
ENDBRANCH  14  20
ENDBRANCH   1  17
BRANCH   8  22
ATOM     22  O3  UNL     1      62.499  19.188  11.304  0.00  0.00    -0.507 OA
ATOM     23  H6  UNL     1      62.454  19.239  12.273  0.00  0.00    +0.292 HD
ENDBRANCH   8  22
BRANCH   6  24
ATOM     24  O4  UNL     1      61.747  23.869  11.645  0.00  0.00    -0.506 OA
ATOM     25  H7  UNL     1      62.285  24.670  11.453  0.00  0.00    +0.292 HD
ENDBRANCH   6  24
BRANCH   2  26
ATOM     26  O5  UNL     1      63.911  25.605   7.196  0.00  0.00    -0.501 OA
ATOM     27  H8  UNL     1      63.005  25.978   7.160  0.00  0.00    +0.292 HD
ENDBRANCH   2  26
TORSDOF 6
ENDMDL
