MODEL 1
REMARK VINA RESULT:    -9.309      0.000      0.000
REMARK INTER + INTRA:         -13.568
REMARK INTER:                 -12.574
REMARK INTRA:                  -0.995
REMARK UNBOUND:                -0.995
REMARK  Name = data/mahkota_dewa_dn/results/docking/ligands/pdb/264-trihydroxy-4-methoxybenzophenone.pdb
REMARK  8 active torsions:
REMARK  status: ('A' for Active; 'I' for Inactive)
REMARK    1  A    between atoms: C1_1  and  O1_2
REMARK    2  A    between atoms: O1_2  and  C2_3
REMARK    3  A    between atoms: C8_10  and  C9_12
REMARK    4  A    between atoms: C12_15  and  O4_18
REMARK    5  A    between atoms: O4_18  and  C15_19
REMARK    6  A    between atoms: C15_19  and  C16_20
REMARK    7  A    between atoms: C22_26  and  O5_28
REMARK    8  A    between atoms: O5_28  and  C24_29
REMARK                            x       y       z     vdW  Elec       q    Type
REMARK                         _______ _______ _______ _____ _____    ______ ____
ROOT
ATOM      1  C2  UNL     1      55.680  16.184   5.737  0.00  0.00    +0.127 A 
ATOM      2  C3  UNL     1      56.591  17.000   6.399  0.00  0.00    +0.092 A 
ATOM      3  C4  UNL     1      57.438  16.456   7.367  0.00  0.00    +0.139 A 
ATOM      4  C5  UNL     1      57.361  15.098   7.708  0.00  0.00    +0.101 A 
ATOM      5  C6  UNL     1      58.252  14.617   8.803  0.00  0.00    +0.174 C 
ATOM      6  O2  UNL     1      58.352  13.439   9.127  0.00  0.00    -0.292 OA
ATOM      7  C7  UNL     1      59.016  15.676   9.548  0.00  0.00    +0.129 C 
ATOM      8  C8  UNL     1      59.449  16.725   8.541  0.00  0.00    +0.211 C 
ATOM      9  O3  UNL     1      58.302  17.350   7.948  0.00  0.00    -0.483 OA
ATOM     10  C22 UNL     1      56.444  14.264   7.043  0.00  0.00    +0.138 A 
ATOM     11  C23 UNL     1      55.616  14.823   6.060  0.00  0.00    +0.092 A 
ENDROOT
BRANCH   8  12
ATOM     12  C9  UNL     1      60.295  17.794   9.207  0.00  0.00    -0.007 A 
ATOM     13  C10 UNL     1      60.443  19.069   8.639  0.00  0.00    +0.011 A 
ATOM     14  C11 UNL     1      61.206  20.056   9.275  0.00  0.00    +0.046 A 
ATOM     15  C12 UNL     1      61.832  19.784  10.490  0.00  0.00    +0.121 A 
ATOM     16  C13 UNL     1      61.673  18.523  11.070  0.00  0.00    +0.046 A 
ATOM     17  C14 UNL     1      60.914  17.535  10.437  0.00  0.00    +0.011 A 
BRANCH  15  18
ATOM     18  O4  UNL     1      62.590  20.656  11.221  0.00  0.00    -0.487 OA
BRANCH  18  19
ATOM     19  C15 UNL     1      63.172  21.775  10.546  0.00  0.00    +0.264 C 
BRANCH  19  20
ATOM     20  C16 UNL     1      64.548  21.495   9.983  0.00  0.00    -0.010 A 
ATOM     21  C17 UNL     1      65.647  21.256  10.821  0.00  0.00    +0.007 A 
ATOM     22  C18 UNL     1      66.903  20.973  10.283  0.00  0.00    +0.000 A 
ATOM     23  C19 UNL     1      67.073  20.916   8.901  0.00  0.00    +0.000 A 
ATOM     24  C20 UNL     1      65.988  21.136   8.056  0.00  0.00    +0.000 A 
ATOM     25  C21 UNL     1      64.731  21.419   8.594  0.00  0.00    +0.007 A 
ENDBRANCH  19  20
ENDBRANCH  18  19
ENDBRANCH  15  18
ENDBRANCH   8  12
BRANCH   1  27
ATOM     26  C1  UNL     1      53.511  15.985   4.779  0.00  0.00    +0.277 C 
ATOM     27  O1  UNL     1      54.804  16.580   4.765  0.00  0.00    -0.495 OA
ENDBRANCH   1  27
BRANCH  10  28
ATOM     28  O5  UNL     1      56.402  12.947   7.406  0.00  0.00    -0.494 OA
ATOM     29  C24 UNL     1      56.367  11.961   6.384  0.00  0.00    +0.277 C 
ENDBRANCH  10  28
TORSDOF 6
ENDMDL
MODEL 2
REMARK VINA RESULT:    -9.230      1.404      2.182
REMARK INTER + INTRA:         -13.463
REMARK INTER:                 -12.567
REMARK INTRA:                  -0.896
REMARK UNBOUND:                -0.995
REMARK  Name = data/mahkota_dewa_dn/results/docking/ligands/pdb/264-trihydroxy-4-methoxybenzophenone.pdb
REMARK  8 active torsions:
REMARK  status: ('A' for Active; 'I' for Inactive)
REMARK    1  A    between atoms: C1_1  and  O1_2
REMARK    2  A    between atoms: O1_2  and  C2_3
REMARK    3  A    between atoms: C8_10  and  C9_12
REMARK    4  A    between atoms: C12_15  and  O4_18
REMARK    5  A    between atoms: O4_18  and  C15_19
REMARK    6  A    between atoms: C15_19  and  C16_20
REMARK    7  A    between atoms: C22_26  and  O5_28
REMARK    8  A    between atoms: O5_28  and  C24_29
REMARK                            x       y       z     vdW  Elec       q    Type
REMARK                         _______ _______ _______ _____ _____    ______ ____
ROOT
ATOM      1  C2  UNL     1      55.396  16.254   5.671  0.00  0.00    +0.127 A 
ATOM      2  C3  UNL     1      56.324  17.094   6.277  0.00  0.00    +0.092 A 
ATOM      3  C4  UNL     1      57.232  16.576   7.202  0.00  0.00    +0.139 A 
ATOM      4  C5  UNL     1      57.202  15.220   7.558  0.00  0.00    +0.101 A 
ATOM      5  C6  UNL     1      58.159  14.768   8.608  0.00  0.00    +0.174 C 
ATOM      6  O2  UNL     1      58.300  13.594   8.935  0.00  0.00    -0.292 OA
ATOM      7  C7  UNL     1      58.940  15.848   9.302  0.00  0.00    +0.129 C 
ATOM      8  C8  UNL     1      59.297  16.896   8.265  0.00  0.00    +0.211 C 
ATOM      9  O3  UNL     1      58.107  17.493   7.730  0.00  0.00    -0.483 OA
ATOM     10  C22 UNL     1      56.268  14.362   6.950  0.00  0.00    +0.138 A 
ATOM     11  C23 UNL     1      55.377  14.896   6.007  0.00  0.00    +0.092 A 
ENDROOT
BRANCH   8  12
ATOM     12  C9  UNL     1      60.155  17.989   8.877  0.00  0.00    -0.007 A 
ATOM     13  C10 UNL     1      60.225  19.268   8.307  0.00  0.00    +0.011 A 
ATOM     14  C11 UNL     1      61.000  20.276   8.894  0.00  0.00    +0.046 A 
ATOM     15  C12 UNL     1      61.717  20.019  10.061  0.00  0.00    +0.121 A 
ATOM     16  C13 UNL     1      61.636  18.753  10.644  0.00  0.00    +0.046 A 
ATOM     17  C14 UNL     1      60.865  17.744  10.060  0.00  0.00    +0.011 A 
BRANCH  15  18
ATOM     18  O4  UNL     1      62.498  20.911  10.742  0.00  0.00    -0.487 OA
BRANCH  18  19
ATOM     19  C15 UNL     1      63.609  21.496  10.057  0.00  0.00    +0.264 C 
BRANCH  19  20
ATOM     20  C16 UNL     1      63.363  22.919   9.604  0.00  0.00    -0.010 A 
ATOM     21  C17 UNL     1      63.675  23.336   8.302  0.00  0.00    +0.007 A 
ATOM     22  C18 UNL     1      63.415  24.645   7.894  0.00  0.00    +0.000 A 
ATOM     23  C19 UNL     1      62.829  25.549   8.778  0.00  0.00    +0.000 A 
ATOM     24  C20 UNL     1      62.499  25.143  10.070  0.00  0.00    +0.000 A 
ATOM     25  C21 UNL     1      62.759  23.834  10.479  0.00  0.00    +0.007 A 
ENDBRANCH  19  20
ENDBRANCH  18  19
ENDBRANCH  15  18
ENDBRANCH   8  12
BRANCH   1  27
ATOM     26  C1  UNL     1      53.390  15.717   4.509  0.00  0.00    +0.277 C 
ATOM     27  O1  UNL     1      54.461  16.624   4.744  0.00  0.00    -0.495 OA
ENDBRANCH   1  27
BRANCH  10  28
ATOM     28  O5  UNL     1      56.272  13.048   7.325  0.00  0.00    -0.494 OA
ATOM     29  C24 UNL     1      55.988  12.060   6.343  0.00  0.00    +0.277 C 
ENDBRANCH  10  28
TORSDOF 6
ENDMDL
MODEL 3
REMARK VINA RESULT:    -9.015      2.524      9.880
REMARK INTER + INTRA:         -13.171
REMARK INTER:                 -12.322
REMARK INTRA:                  -0.849
REMARK UNBOUND:                -0.995
REMARK  Name = data/mahkota_dewa_dn/results/docking/ligands/pdb/264-trihydroxy-4-methoxybenzophenone.pdb
REMARK  8 active torsions:
REMARK  status: ('A' for Active; 'I' for Inactive)
REMARK    1  A    between atoms: C1_1  and  O1_2
REMARK    2  A    between atoms: O1_2  and  C2_3
REMARK    3  A    between atoms: C8_10  and  C9_12
REMARK    4  A    between atoms: C12_15  and  O4_18
REMARK    5  A    between atoms: O4_18  and  C15_19
REMARK    6  A    between atoms: C15_19  and  C16_20
REMARK    7  A    between atoms: C22_26  and  O5_28
REMARK    8  A    between atoms: O5_28  and  C24_29
REMARK                            x       y       z     vdW  Elec       q    Type
REMARK                         _______ _______ _______ _____ _____    ______ ____
ROOT
ATOM      1  C2  UNL     1      63.573  22.352  11.454  0.00  0.00    +0.127 A 
ATOM      2  C3  UNL     1      62.841  21.175  11.339  0.00  0.00    +0.092 A 
ATOM      3  C4  UNL     1      62.073  20.942  10.197  0.00  0.00    +0.139 A 
ATOM      4  C5  UNL     1      62.000  21.896   9.171  0.00  0.00    +0.101 A 
ATOM      5  C6  UNL     1      61.099  21.596   8.022  0.00  0.00    +0.174 C 
ATOM      6  O2  UNL     1      61.023  22.299   7.020  0.00  0.00    -0.292 OA
ATOM      7  C7  UNL     1      60.226  20.381   8.165  0.00  0.00    +0.129 C 
ATOM      8  C8  UNL     1      61.038  19.311   8.869  0.00  0.00    +0.211 C 
ATOM      9  O3  UNL     1      61.399  19.746  10.187  0.00  0.00    -0.483 OA
ATOM     10  C22 UNL     1      62.738  23.088   9.278  0.00  0.00    +0.138 A 
ATOM     11  C23 UNL     1      63.521  23.297  10.422  0.00  0.00    +0.092 A 
ENDROOT
BRANCH   8  12
ATOM     12  C9  UNL     1      60.247  18.021   8.983  0.00  0.00    -0.007 A 
ATOM     13  C10 UNL     1      59.293  17.661   8.020  0.00  0.00    +0.011 A 
ATOM     14  C11 UNL     1      58.587  16.456   8.121  0.00  0.00    +0.046 A 
ATOM     15  C12 UNL     1      58.823  15.592   9.189  0.00  0.00    +0.121 A 
ATOM     16  C13 UNL     1      59.785  15.936  10.142  0.00  0.00    +0.046 A 
ATOM     17  C14 UNL     1      60.491  17.139  10.044  0.00  0.00    +0.011 A 
BRANCH  15  18
ATOM     18  O4  UNL     1      58.217  14.385   9.401  0.00  0.00    -0.487 OA
BRANCH  18  19
ATOM     19  C15 UNL     1      57.027  14.089   8.665  0.00  0.00    +0.264 C 
BRANCH  19  20
ATOM     20  C16 UNL     1      57.246  13.125   7.519  0.00  0.00    -0.010 A 
ATOM     21  C17 UNL     1      57.181  11.737   7.708  0.00  0.00    +0.007 A 
ATOM     22  C18 UNL     1      57.358  10.865   6.633  0.00  0.00    +0.000 A 
ATOM     23  C19 UNL     1      57.592  11.370   5.355  0.00  0.00    +0.000 A 
ATOM     24  C20 UNL     1      57.643  12.747   5.150  0.00  0.00    +0.000 A 
ATOM     25  C21 UNL     1      57.466  13.620   6.225  0.00  0.00    +0.007 A 
ENDBRANCH  19  20
ENDBRANCH  18  19
ENDBRANCH  15  18
ENDBRANCH   8  12
BRANCH   1  27
ATOM     26  C1  UNL     1      65.570  21.953  12.687  0.00  0.00    +0.277 C 
ATOM     27  O1  UNL     1      64.373  22.703  12.507  0.00  0.00    -0.495 OA
ENDBRANCH   1  27
BRANCH  10  28
ATOM     28  O5  UNL     1      62.640  23.991   8.256  0.00  0.00    -0.494 OA
ATOM     29  C24 UNL     1      63.136  25.306   8.461  0.00  0.00    +0.277 C 
ENDBRANCH  10  28
TORSDOF 6
ENDMDL
MODEL 4
REMARK VINA RESULT:    -8.890      1.228      2.894
REMARK INTER + INTRA:         -13.003
REMARK INTER:                 -12.028
REMARK INTRA:                  -0.974
REMARK UNBOUND:                -0.995
REMARK  Name = data/mahkota_dewa_dn/results/docking/ligands/pdb/264-trihydroxy-4-methoxybenzophenone.pdb
REMARK  8 active torsions:
REMARK  status: ('A' for Active; 'I' for Inactive)
REMARK    1  A    between atoms: C1_1  and  O1_2
REMARK    2  A    between atoms: O1_2  and  C2_3
REMARK    3  A    between atoms: C8_10  and  C9_12
REMARK    4  A    between atoms: C12_15  and  O4_18
REMARK    5  A    between atoms: O4_18  and  C15_19
REMARK    6  A    between atoms: C15_19  and  C16_20
REMARK    7  A    between atoms: C22_26  and  O5_28
REMARK    8  A    between atoms: O5_28  and  C24_29
REMARK                            x       y       z     vdW  Elec       q    Type
REMARK                         _______ _______ _______ _____ _____    ______ ____
ROOT
ATOM      1  C2  UNL     1      57.060  13.219   8.200  0.00  0.00    +0.127 A 
ATOM      2  C3  UNL     1      57.953  14.138   8.740  0.00  0.00    +0.092 A 
ATOM      3  C4  UNL     1      58.247  15.314   8.047  0.00  0.00    +0.139 A 
ATOM      4  C5  UNL     1      57.676  15.571   6.792  0.00  0.00    +0.101 A 
ATOM      5  C6  UNL     1      58.101  16.816   6.091  0.00  0.00    +0.174 C 
ATOM      6  O2  UNL     1      57.604  17.203   5.039  0.00  0.00    -0.292 OA
ATOM      7  C7  UNL     1      59.229  17.581   6.724  0.00  0.00    +0.129 C 
ATOM      8  C8  UNL     1      59.046  17.511   8.228  0.00  0.00    +0.211 C 
ATOM      9  O3  UNL     1      59.134  16.151   8.678  0.00  0.00    -0.483 OA
ATOM     10  C22 UNL     1      56.770  14.649   6.239  0.00  0.00    +0.138 A 
ATOM     11  C23 UNL     1      56.472  13.482   6.958  0.00  0.00    +0.092 A 
ENDROOT
BRANCH   8  12
ATOM     12  C9  UNL     1      60.109  18.327   8.939  0.00  0.00    -0.007 A 
ATOM     13  C10 UNL     1      60.480  19.600   8.483  0.00  0.00    +0.011 A 
ATOM     14  C11 UNL     1      61.444  20.355   9.162  0.00  0.00    +0.046 A 
ATOM     15  C12 UNL     1      62.053  19.848  10.309  0.00  0.00    +0.121 A 
ATOM     16  C13 UNL     1      61.675  18.588  10.779  0.00  0.00    +0.046 A 
ATOM     17  C14 UNL     1      60.714  17.831  10.102  0.00  0.00    +0.011 A 
BRANCH  15  18
ATOM     18  O4  UNL     1      62.995  20.482  11.071  0.00  0.00    -0.487 OA
BRANCH  18  19
ATOM     19  C15 UNL     1      63.647  21.630  10.522  0.00  0.00    +0.264 C 
BRANCH  19  20
ATOM     20  C16 UNL     1      64.936  21.308   9.799  0.00  0.00    -0.010 A 
ATOM     21  C17 UNL     1      64.991  21.236   8.399  0.00  0.00    +0.007 A 
ATOM     22  C18 UNL     1      66.196  20.964   7.748  0.00  0.00    +0.000 A 
ATOM     23  C19 UNL     1      67.361  20.773   8.488  0.00  0.00    +0.000 A 
ATOM     24  C20 UNL     1      67.324  20.858   9.878  0.00  0.00    +0.000 A 
ATOM     25  C21 UNL     1      66.120  21.129  10.530  0.00  0.00    +0.007 A 
ENDBRANCH  19  20
ENDBRANCH  18  19
ENDBRANCH  15  18
ENDBRANCH   8  12
BRANCH   1  27
ATOM     26  C1  UNL     1      57.347  10.861   8.338  0.00  0.00    +0.277 C 
ATOM     27  O1  UNL     1      56.676  12.038   8.773  0.00  0.00    -0.495 OA
ENDBRANCH   1  27
BRANCH  10  28
ATOM     28  O5  UNL     1      56.237  14.938   5.014  0.00  0.00    -0.494 OA
ATOM     29  C24 UNL     1      54.824  15.032   4.893  0.00  0.00    +0.277 C 
ENDBRANCH  10  28
TORSDOF 6
ENDMDL
MODEL 5
REMARK VINA RESULT:    -8.661      1.889      3.478
REMARK INTER + INTRA:         -12.694
REMARK INTER:                 -11.853
REMARK INTRA:                  -0.841
REMARK UNBOUND:                -0.995
REMARK  Name = data/mahkota_dewa_dn/results/docking/ligands/pdb/264-trihydroxy-4-methoxybenzophenone.pdb
REMARK  8 active torsions:
REMARK  status: ('A' for Active; 'I' for Inactive)
REMARK    1  A    between atoms: C1_1  and  O1_2
REMARK    2  A    between atoms: O1_2  and  C2_3
REMARK    3  A    between atoms: C8_10  and  C9_12
REMARK    4  A    between atoms: C12_15  and  O4_18
REMARK    5  A    between atoms: O4_18  and  C15_19
REMARK    6  A    between atoms: C15_19  and  C16_20
REMARK    7  A    between atoms: C22_26  and  O5_28
REMARK    8  A    between atoms: O5_28  and  C24_29
REMARK                            x       y       z     vdW  Elec       q    Type
REMARK                         _______ _______ _______ _____ _____    ______ ____
ROOT
ATOM      1  C2  UNL     1      56.992  13.324   8.188  0.00  0.00    +0.127 A 
ATOM      2  C3  UNL     1      57.873  14.300   8.641  0.00  0.00    +0.092 A 
ATOM      3  C4  UNL     1      58.103  15.441   7.871  0.00  0.00    +0.139 A 
ATOM      4  C5  UNL     1      57.480  15.607   6.626  0.00  0.00    +0.101 A 
ATOM      5  C6  UNL     1      57.839  16.821   5.838  0.00  0.00    +0.174 C 
ATOM      6  O2  UNL     1      57.293  17.130   4.784  0.00  0.00    -0.292 OA
ATOM      7  C7  UNL     1      58.963  17.656   6.384  0.00  0.00    +0.129 C 
ATOM      8  C8  UNL     1      58.836  17.669   7.895  0.00  0.00    +0.211 C 
ATOM      9  O3  UNL     1      58.984  16.341   8.419  0.00  0.00    -0.483 OA
ATOM     10  C22 UNL     1      56.586  14.626   6.160  0.00  0.00    +0.138 A 
ATOM     11  C23 UNL     1      56.352  13.495   6.956  0.00  0.00    +0.092 A 
ENDROOT
BRANCH   8  12
ATOM     12  C9  UNL     1      59.896  18.558   8.518  0.00  0.00    -0.007 A 
ATOM     13  C10 UNL     1      60.136  19.854   8.040  0.00  0.00    +0.011 A 
ATOM     14  C11 UNL     1      61.100  20.675   8.639  0.00  0.00    +0.046 A 
ATOM     15  C12 UNL     1      61.838  20.212   9.726  0.00  0.00    +0.121 A 
ATOM     16  C13 UNL     1      61.591  18.928  10.219  0.00  0.00    +0.046 A 
ATOM     17  C14 UNL     1      60.631  18.106   9.623  0.00  0.00    +0.011 A 
BRANCH  15  18
ATOM     18  O4  UNL     1      62.794  20.910  10.410  0.00  0.00    -0.487 OA
BRANCH  18  19
ATOM     19  C15 UNL     1      63.779  21.622   9.655  0.00  0.00    +0.264 C 
BRANCH  19  20
ATOM     20  C16 UNL     1      63.400  23.057   9.363  0.00  0.00    -0.010 A 
ATOM     21  C17 UNL     1      62.732  23.845  10.311  0.00  0.00    +0.007 A 
ATOM     22  C18 UNL     1      62.415  25.176  10.032  0.00  0.00    +0.000 A 
ATOM     23  C19 UNL     1      62.772  25.736   8.807  0.00  0.00    +0.000 A 
ATOM     24  C20 UNL     1      63.449  24.969   7.862  0.00  0.00    +0.000 A 
ATOM     25  C21 UNL     1      63.767  23.639   8.140  0.00  0.00    +0.007 A 
ENDBRANCH  19  20
ENDBRANCH  18  19
ENDBRANCH  15  18
ENDBRANCH   8  12
BRANCH   1  27
ATOM     26  C1  UNL     1      57.205  10.957   8.320  0.00  0.00    +0.277 C 
ATOM     27  O1  UNL     1      56.668  12.168   8.842  0.00  0.00    -0.495 OA
ENDBRANCH   1  27
BRANCH  10  28
ATOM     28  O5  UNL     1      56.001  14.826   4.941  0.00  0.00    -0.494 OA
ATOM     29  C24 UNL     1      54.583  14.889   4.870  0.00  0.00    +0.277 C 
ENDBRANCH  10  28
TORSDOF 6
ENDMDL
MODEL 6
REMARK VINA RESULT:    -8.417      2.368     10.124
REMARK INTER + INTRA:         -12.364
REMARK INTER:                 -11.504
REMARK INTRA:                  -0.860
REMARK UNBOUND:                -0.995
REMARK  Name = data/mahkota_dewa_dn/results/docking/ligands/pdb/264-trihydroxy-4-methoxybenzophenone.pdb
REMARK  8 active torsions:
REMARK  status: ('A' for Active; 'I' for Inactive)
REMARK    1  A    between atoms: C1_1  and  O1_2
REMARK    2  A    between atoms: O1_2  and  C2_3
REMARK    3  A    between atoms: C8_10  and  C9_12
REMARK    4  A    between atoms: C12_15  and  O4_18
REMARK    5  A    between atoms: O4_18  and  C15_19
REMARK    6  A    between atoms: C15_19  and  C16_20
REMARK    7  A    between atoms: C22_26  and  O5_28
REMARK    8  A    between atoms: O5_28  and  C24_29
REMARK                            x       y       z     vdW  Elec       q    Type
REMARK                         _______ _______ _______ _____ _____    ______ ____
ROOT
ATOM      1  C2  UNL     1      63.294  21.962  11.574  0.00  0.00    +0.127 A 
ATOM      2  C3  UNL     1      62.445  20.939  11.166  0.00  0.00    +0.092 A 
ATOM      3  C4  UNL     1      61.791  21.027   9.935  0.00  0.00    +0.139 A 
ATOM      4  C5  UNL     1      61.953  22.152   9.113  0.00  0.00    +0.101 A 
ATOM      5  C6  UNL     1      61.160  22.195   7.851  0.00  0.00    +0.174 C 
ATOM      6  O2  UNL     1      61.286  23.072   7.003  0.00  0.00    -0.292 OA
ATOM      7  C7  UNL     1      60.138  21.108   7.674  0.00  0.00    +0.129 C 
ATOM      8  C8  UNL     1      60.730  19.825   8.225  0.00  0.00    +0.211 C 
ATOM      9  O3  UNL     1      60.985  19.958   9.630  0.00  0.00    -0.483 OA
ATOM     10  C22 UNL     1      62.810  23.191   9.517  0.00  0.00    +0.138 A 
ATOM     11  C23 UNL     1      63.475  23.076  10.747  0.00  0.00    +0.092 A 
ENDROOT
BRANCH   8  12
ATOM     12  C9  UNL     1      59.782  18.659   8.013  0.00  0.00    -0.007 A 
ATOM     13  C10 UNL     1      59.824  17.523   8.834  0.00  0.00    +0.011 A 
ATOM     14  C11 UNL     1      58.928  16.464   8.645  0.00  0.00    +0.046 A 
ATOM     15  C12 UNL     1      57.975  16.525   7.630  0.00  0.00    +0.121 A 
ATOM     16  C13 UNL     1      57.915  17.662   6.820  0.00  0.00    +0.046 A 
ATOM     17  C14 UNL     1      58.809  18.720   7.006  0.00  0.00    +0.011 A 
BRANCH  15  18
ATOM     18  O4  UNL     1      57.035  15.573   7.346  0.00  0.00    -0.487 OA
BRANCH  18  19
ATOM     19  C15 UNL     1      57.482  14.320   6.820  0.00  0.00    +0.264 C 
BRANCH  19  20
ATOM     20  C16 UNL     1      57.075  13.129   7.661  0.00  0.00    -0.010 A 
ATOM     21  C17 UNL     1      57.464  11.826   7.319  0.00  0.00    +0.007 A 
ATOM     22  C18 UNL     1      57.101  10.743   8.122  0.00  0.00    +0.000 A 
ATOM     23  C19 UNL     1      56.356  10.952   9.281  0.00  0.00    +0.000 A 
ATOM     24  C20 UNL     1      55.977  12.243   9.641  0.00  0.00    +0.000 A 
ATOM     25  C21 UNL     1      56.339  13.327   8.838  0.00  0.00    +0.007 A 
ENDBRANCH  19  20
ENDBRANCH  18  19
ENDBRANCH  15  18
ENDBRANCH   8  12
BRANCH   1  27
ATOM     26  C1  UNL     1      65.421  21.950  12.641  0.00  0.00    +0.277 C 
ATOM     27  O1  UNL     1      64.002  22.000  12.744  0.00  0.00    -0.495 OA
ENDBRANCH   1  27
BRANCH  10  28
ATOM     28  O5  UNL     1      62.939  24.269   8.687  0.00  0.00    -0.494 OA
ATOM     29  C24 UNL     1      62.761  25.570   9.230  0.00  0.00    +0.277 C 
ENDBRANCH  10  28
TORSDOF 6
ENDMDL
MODEL 7
REMARK VINA RESULT:    -8.069      2.326      9.824
REMARK INTER + INTRA:         -11.895
REMARK INTER:                 -10.950
REMARK INTRA:                  -0.944
REMARK UNBOUND:                -0.995
REMARK  Name = data/mahkota_dewa_dn/results/docking/ligands/pdb/264-trihydroxy-4-methoxybenzophenone.pdb
REMARK  8 active torsions:
REMARK  status: ('A' for Active; 'I' for Inactive)
REMARK    1  A    between atoms: C1_1  and  O1_2
REMARK    2  A    between atoms: O1_2  and  C2_3
REMARK    3  A    between atoms: C8_10  and  C9_12
REMARK    4  A    between atoms: C12_15  and  O4_18
REMARK    5  A    between atoms: O4_18  and  C15_19
REMARK    6  A    between atoms: C15_19  and  C16_20
REMARK    7  A    between atoms: C22_26  and  O5_28
REMARK    8  A    between atoms: O5_28  and  C24_29
REMARK                            x       y       z     vdW  Elec       q    Type
REMARK                         _______ _______ _______ _____ _____    ______ ____
ROOT
ATOM      1  C2  UNL     1      63.705  21.978  10.851  0.00  0.00    +0.127 A 
ATOM      2  C3  UNL     1      62.879  20.886  10.608  0.00  0.00    +0.092 A 
ATOM      3  C4  UNL     1      61.944  20.937   9.572  0.00  0.00    +0.139 A 
ATOM      4  C5  UNL     1      61.800  22.092   8.789  0.00  0.00    +0.101 A 
ATOM      5  C6  UNL     1      60.727  22.085   7.754  0.00  0.00    +0.174 C 
ATOM      6  O2  UNL     1      60.564  22.990   6.942  0.00  0.00    -0.292 OA
ATOM      7  C7  UNL     1      59.795  20.906   7.773  0.00  0.00    +0.129 C 
ATOM      8  C8  UNL     1      60.617  19.676   8.108  0.00  0.00    +0.211 C 
ATOM      9  O3  UNL     1      61.190  19.801   9.417  0.00  0.00    -0.483 OA
ATOM     10  C22 UNL     1      62.631  23.201   9.027  0.00  0.00    +0.138 A 
ATOM     11  C23 UNL     1      63.579  23.124  10.058  0.00  0.00    +0.092 A 
ENDROOT
BRANCH   8  12
ATOM     12  C9  UNL     1      59.757  18.426   8.071  0.00  0.00    -0.007 A 
ATOM     13  C10 UNL     1      58.777  18.242   7.084  0.00  0.00    +0.011 A 
ATOM     14  C11 UNL     1      58.006  17.074   7.045  0.00  0.00    +0.046 A 
ATOM     15  C12 UNL     1      58.203  16.071   7.992  0.00  0.00    +0.121 A 
ATOM     16  C13 UNL     1      59.190  16.240   8.966  0.00  0.00    +0.046 A 
ATOM     17  C14 UNL     1      59.960  17.406   9.009  0.00  0.00    +0.011 A 
BRANCH  15  18
ATOM     18  O4  UNL     1      57.533  14.881   8.060  0.00  0.00    -0.487 OA
BRANCH  18  19
ATOM     19  C15 UNL     1      56.659  14.536   6.982  0.00  0.00    +0.264 C 
BRANCH  19  20
ATOM     20  C16 UNL     1      57.289  13.614   5.961  0.00  0.00    -0.010 A 
ATOM     21  C17 UNL     1      57.971  14.118   4.844  0.00  0.00    +0.007 A 
ATOM     22  C18 UNL     1      58.570  13.252   3.927  0.00  0.00    +0.000 A 
ATOM     23  C19 UNL     1      58.502  11.874   4.122  0.00  0.00    +0.000 A 
ATOM     24  C20 UNL     1      57.841  11.360   5.235  0.00  0.00    +0.000 A 
ATOM     25  C21 UNL     1      57.242  12.225   6.153  0.00  0.00    +0.007 A 
ENDBRANCH  19  20
ENDBRANCH  18  19
ENDBRANCH  15  18
ENDBRANCH   8  12
BRANCH   1  27
ATOM     26  C1  UNL     1      65.847  21.288  11.624  0.00  0.00    +0.277 C 
ATOM     27  O1  UNL     1      64.666  22.059  11.820  0.00  0.00    -0.495 OA
ENDBRANCH   1  27
BRANCH  10  28
ATOM     28  O5  UNL     1      62.457  24.306   8.241  0.00  0.00    -0.494 OA
ATOM     29  C24 UNL     1      62.111  25.535   8.864  0.00  0.00    +0.277 C 
ENDBRANCH  10  28
TORSDOF 6
ENDMDL
MODEL 8
REMARK VINA RESULT:    -7.962      2.821      9.677
REMARK INTER + INTRA:         -11.749
REMARK INTER:                 -10.862
REMARK INTRA:                  -0.888
REMARK UNBOUND:                -0.995
REMARK  Name = data/mahkota_dewa_dn/results/docking/ligands/pdb/264-trihydroxy-4-methoxybenzophenone.pdb
REMARK  8 active torsions:
REMARK  status: ('A' for Active; 'I' for Inactive)
REMARK    1  A    between atoms: C1_1  and  O1_2
REMARK    2  A    between atoms: O1_2  and  C2_3
REMARK    3  A    between atoms: C8_10  and  C9_12
REMARK    4  A    between atoms: C12_15  and  O4_18
REMARK    5  A    between atoms: O4_18  and  C15_19
REMARK    6  A    between atoms: C15_19  and  C16_20
REMARK    7  A    between atoms: C22_26  and  O5_28
REMARK    8  A    between atoms: O5_28  and  C24_29
REMARK                            x       y       z     vdW  Elec       q    Type
REMARK                         _______ _______ _______ _____ _____    ______ ____
ROOT
ATOM      1  C2  UNL     1      62.369  23.060   9.703  0.00  0.00    +0.127 A 
ATOM      2  C3  UNL     1      61.820  21.794   9.872  0.00  0.00    +0.092 A 
ATOM      3  C4  UNL     1      61.098  21.203   8.833  0.00  0.00    +0.139 A 
ATOM      4  C5  UNL     1      60.889  21.884   7.624  0.00  0.00    +0.101 A 
ATOM      5  C6  UNL     1      60.046  21.208   6.597  0.00  0.00    +0.174 C 
ATOM      6  O2  UNL     1      59.871  21.652   5.467  0.00  0.00    -0.292 OA
ATOM      7  C7  UNL     1      59.362  19.942   7.030  0.00  0.00    +0.129 C 
ATOM      8  C8  UNL     1      60.322  19.185   7.928  0.00  0.00    +0.211 C 
ATOM      9  O3  UNL     1      60.610  19.950   9.107  0.00  0.00    -0.483 OA
ATOM     10  C22 UNL     1      61.442  23.164   7.443  0.00  0.00    +0.138 A 
ATOM     11  C23 UNL     1      62.181  23.734   8.490  0.00  0.00    +0.092 A 
ENDROOT
BRANCH   8  12
ATOM     12  C9  UNL     1      59.729  17.852   8.347  0.00  0.00    -0.007 A 
ATOM     13  C10 UNL     1      60.129  17.213   9.530  0.00  0.00    +0.011 A 
ATOM     14  C11 UNL     1      59.558  15.996   9.919  0.00  0.00    +0.046 A 
ATOM     15  C12 UNL     1      58.576  15.398   9.131  0.00  0.00    +0.121 A 
ATOM     16  C13 UNL     1      58.160  16.038   7.961  0.00  0.00    +0.046 A 
ATOM     17  C14 UNL     1      58.730  17.252   7.569  0.00  0.00    +0.011 A 
BRANCH  15  18
ATOM     18  O4  UNL     1      57.929  14.224   9.400  0.00  0.00    -0.487 OA
BRANCH  18  19
ATOM     19  C15 UNL     1      56.742  13.923   8.660  0.00  0.00    +0.264 C 
BRANCH  19  20
ATOM     20  C16 UNL     1      56.877  12.712   7.763  0.00  0.00    -0.010 A 
ATOM     21  C17 UNL     1      56.859  12.831   6.366  0.00  0.00    +0.007 A 
ATOM     22  C18 UNL     1      57.012  11.705   5.555  0.00  0.00    +0.000 A 
ATOM     23  C19 UNL     1      57.195  10.449   6.131  0.00  0.00    +0.000 A 
ATOM     24  C20 UNL     1      57.230  10.318   7.518  0.00  0.00    +0.000 A 
ATOM     25  C21 UNL     1      57.078  11.444   8.329  0.00  0.00    +0.007 A 
ENDBRANCH  19  20
ENDBRANCH  18  19
ENDBRANCH  15  18
ENDBRANCH   8  12
BRANCH   1  27
ATOM     26  C1  UNL     1      63.396  23.077  11.849  0.00  0.00    +0.277 C 
ATOM     27  O1  UNL     1      63.104  23.748  10.628  0.00  0.00    -0.495 OA
ENDBRANCH   1  27
BRANCH  10  28
ATOM     28  O5  UNL     1      61.215  23.793   6.251  0.00  0.00    -0.494 OA
ATOM     29  C24 UNL     1      62.326  24.310   5.533  0.00  0.00    +0.277 C 
ENDBRANCH  10  28
TORSDOF 6
ENDMDL
MODEL 9
REMARK VINA RESULT:    -7.950      3.276      4.655
REMARK INTER + INTRA:         -11.733
REMARK INTER:                 -10.678
REMARK INTRA:                  -1.055
REMARK UNBOUND:                -0.995
REMARK  Name = data/mahkota_dewa_dn/results/docking/ligands/pdb/264-trihydroxy-4-methoxybenzophenone.pdb
REMARK  8 active torsions:
REMARK  status: ('A' for Active; 'I' for Inactive)
REMARK    1  A    between atoms: C1_1  and  O1_2
REMARK    2  A    between atoms: O1_2  and  C2_3
REMARK    3  A    between atoms: C8_10  and  C9_12
REMARK    4  A    between atoms: C12_15  and  O4_18
REMARK    5  A    between atoms: O4_18  and  C15_19
REMARK    6  A    between atoms: C15_19  and  C16_20
REMARK    7  A    between atoms: C22_26  and  O5_28
REMARK    8  A    between atoms: O5_28  and  C24_29
REMARK                            x       y       z     vdW  Elec       q    Type
REMARK                         _______ _______ _______ _____ _____    ______ ____
ROOT
ATOM      1  C2  UNL     1      57.940  15.223   7.861  0.00  0.00    +0.127 A 
ATOM      2  C3  UNL     1      58.572  16.437   8.108  0.00  0.00    +0.092 A 
ATOM      3  C4  UNL     1      58.627  17.408   7.107  0.00  0.00    +0.139 A 
ATOM      4  C5  UNL     1      58.080  17.167   5.838  0.00  0.00    +0.101 A 
ATOM      5  C6  UNL     1      58.248  18.231   4.808  0.00  0.00    +0.174 C 
ATOM      6  O2  UNL     1      57.733  18.184   3.696  0.00  0.00    -0.292 OA
ATOM      7  C7  UNL     1      59.139  19.382   5.184  0.00  0.00    +0.129 C 
ATOM      8  C8  UNL     1      58.897  19.692   6.649  0.00  0.00    +0.211 C 
ATOM      9  O3  UNL     1      59.267  18.570   7.463  0.00  0.00    -0.483 OA
ATOM     10  C22 UNL     1      57.437  15.943   5.580  0.00  0.00    +0.138 A 
ATOM     11  C23 UNL     1      57.373  14.986   6.604  0.00  0.00    +0.092 A 
ENDROOT
BRANCH   8  12
ATOM     12  C9  UNL     1      59.709  20.897   7.086  0.00  0.00    -0.007 A 
ATOM     13  C10 UNL     1      59.623  22.122   6.406  0.00  0.00    +0.011 A 
ATOM     14  C11 UNL     1      60.357  23.234   6.834  0.00  0.00    +0.046 A 
ATOM     15  C12 UNL     1      61.189  23.141   7.948  0.00  0.00    +0.121 A 
ATOM     16  C13 UNL     1      61.264  21.930   8.641  0.00  0.00    +0.046 A 
ATOM     17  C14 UNL     1      60.534  20.816   8.216  0.00  0.00    +0.011 A 
BRANCH  15  18
ATOM     18  O4  UNL     1      61.946  24.148   8.479  0.00  0.00    -0.487 OA
BRANCH  18  19
ATOM     19  C15 UNL     1      63.333  24.204   8.132  0.00  0.00    +0.264 C 
BRANCH  19  20
ATOM     20  C16 UNL     1      63.588  24.707   6.728  0.00  0.00    -0.010 A 
ATOM     21  C17 UNL     1      63.197  25.993   6.329  0.00  0.00    +0.007 A 
ATOM     22  C18 UNL     1      63.465  26.449   5.037  0.00  0.00    +0.000 A 
ATOM     23  C19 UNL     1      64.138  25.628   4.133  0.00  0.00    +0.000 A 
ATOM     24  C20 UNL     1      64.546  24.354   4.521  0.00  0.00    +0.000 A 
ATOM     25  C21 UNL     1      64.278  23.898   5.812  0.00  0.00    +0.007 A 
ENDBRANCH  19  20
ENDBRANCH  18  19
ENDBRANCH  15  18
ENDBRANCH   8  12
BRANCH   1  27
ATOM     26  C1  UNL     1      56.514  13.995   9.319  0.00  0.00    +0.277 C 
ATOM     27  O1  UNL     1      57.804  14.192   8.750  0.00  0.00    -0.495 OA
ENDBRANCH   1  27
BRANCH  10  28
ATOM     28  O5  UNL     1      56.918  15.748   4.331  0.00  0.00    -0.494 OA
ATOM     29  C24 UNL     1      55.541  15.419   4.211  0.00  0.00    +0.277 C 
ENDBRANCH  10  28
TORSDOF 6
ENDMDL
