REMARK  Name = data/mahkota_dewa_dn/results/docking/ligands/pdb/Apigenin.pdb
REMARK  4 active torsions:
REMARK  status: ('A' for Active; 'I' for Inactive)
REMARK    1  A    between atoms: C3_3  and  O5_20
REMARK    2  A    between atoms: C6_6  and  C7_7
REMARK    3  A    between atoms: C11_12  and  O4_19
REMARK    4  A    between atoms: C13_14  and  O3_18
REMARK                            x       y       z     vdW  Elec       q    Type
REMARK                         _______ _______ _______ _____ _____    ______ ____
ROOT
ATOM      1  C7  UNL     1       0.470  -0.473  -0.306  0.00  0.00    +0.139 A 
ATOM      2  C8  UNL     1      -0.133  -1.477  -0.960  0.00  0.00    +0.098 A 
ATOM      3  C9  UNL     1      -1.599  -1.482  -1.062  0.00  0.00    +0.197 A 
ATOM      4  O1  UNL     1      -2.201  -2.377  -1.643  0.00  0.00    -0.287 OA
ATOM      5  C10 UNL     1      -2.317  -0.366  -0.436  0.00  0.00    +0.105 A 
ATOM      6  C11 UNL     1      -3.712  -0.275  -0.475  0.00  0.00    +0.135 A 
ATOM      7  C12 UNL     1      -4.362   0.799   0.129  0.00  0.00    +0.091 A 
ATOM      8  C13 UNL     1      -3.606   1.778   0.768  0.00  0.00    +0.124 A 
ATOM      9  C14 UNL     1      -2.216   1.698   0.813  0.00  0.00    +0.092 A 
ATOM     10  C15 UNL     1      -1.571   0.620   0.207  0.00  0.00    +0.146 A 
ATOM     11  O2  UNL     1      -0.201   0.591   0.278  0.00  0.00    -0.454 OA
ENDROOT
BRANCH   1  17
ATOM     12  C1  UNL     1       2.600   0.824  -0.343  0.00  0.00    +0.015 A 
ATOM     13  C2  UNL     1       3.990   0.915  -0.216  0.00  0.00    +0.046 A 
ATOM     14  C3  UNL     1       4.724  -0.226   0.085  0.00  0.00    +0.117 A 
ATOM     15  C4  UNL     1       4.092  -1.450   0.264  0.00  0.00    +0.046 A 
ATOM     16  C5  UNL     1       2.704  -1.539   0.137  0.00  0.00    +0.015 A 
ATOM     17  C6  UNL     1       1.939  -0.404  -0.177  0.00  0.00    +0.018 A 
BRANCH  14  18
ATOM     18  O5  UNL     1       6.079  -0.186   0.219  0.00  0.00    -0.507 OA
ATOM     19  H10 UNL     1       6.380   0.727   0.076  0.00  0.00    +0.292 HD
ENDBRANCH  14  18
ENDBRANCH   1  17
BRANCH   8  20
ATOM     20  O3  UNL     1      -4.197   2.847   1.373  0.00  0.00    -0.507 OA
ATOM     21  H8  UNL     1      -5.161   2.772   1.271  0.00  0.00    +0.292 HD
ENDBRANCH   8  20
BRANCH   6  22
ATOM     22  O4  UNL     1      -4.503  -1.208  -1.090  0.00  0.00    -0.506 OA
ATOM     23  H9  UNL     1      -3.919  -1.903  -1.470  0.00  0.00    +0.292 HD
ENDBRANCH   6  22
TORSDOF 4
