REMARK  Name = data/mahkota_dewa_dn/results/docking/ligands/pdb/Atorvastatin.pdb
REMARK  17 active torsions:
REMARK  status: ('A' for Active; 'I' for Inactive)
REMARK    1  A    between atoms: C1_1  and  C2_2
REMARK    2  A    between atoms: C2_2  and  C3_3
REMARK    3  A    between atoms: C2_2  and  C4_4
REMARK    4  A    between atoms: C5_5  and  C6_6
REMARK    5  A    between atoms: N1_8  and  C7_9
REMARK    6  A    between atoms: C13_15  and  C28_36
REMARK    7  A    between atoms: C14_16  and  C15_17
REMARK    8  A    between atoms: N2_24  and  C21_25
REMARK    9  A    between atoms: C21_25  and  C22_26
REMARK   10  A    between atoms: C22_26  and  C23_27
REMARK   11  A    between atoms: C23_27  and  O2_28
REMARK   12  A    between atoms: C23_27  and  C24_29
REMARK   13  A    between atoms: C24_29  and  C25_30
REMARK   14  A    between atoms: C25_30  and  O3_31
REMARK   15  A    between atoms: C25_30  and  C26_32
REMARK   16  A    between atoms: C26_32  and  C27_33
REMARK   17  A    between atoms: C27_33  and  O5_35
REMARK                            x       y       z     vdW  Elec       q    Type
REMARK                         _______ _______ _______ _____ _____    ______ ____
ROOT
ATOM      1  C4  UNL     1       0.121   0.816  -0.821  0.00  0.00    +0.035 A 
ATOM      2  C5  UNL     1      -1.253   0.784  -0.566  0.00  0.00    +0.066 A 
ATOM      3  C13 UNL     1      -1.619  -0.595  -0.408  0.00  0.00    +0.020 A 
ATOM      4  C14 UNL     1      -0.481  -1.369  -0.580  0.00  0.00    +0.058 A 
ATOM      5  N2  UNL     1       0.563  -0.501  -0.856  0.00  0.00    -0.342 N 
ENDROOT
BRANCH   4   6
ATOM      6  C15 UNL     1      -0.345  -2.828  -0.576  0.00  0.00    -0.001 A 
ATOM      7  C16 UNL     1       0.129  -3.493   0.563  0.00  0.00    +0.013 A 
ATOM      8  C17 UNL     1       0.251  -4.883   0.563  0.00  0.00    +0.039 A 
ATOM      9  C18 UNL     1      -0.106  -5.602  -0.573  0.00  0.00    +0.123 A 
ATOM     10  F1  UNL     1       0.012  -6.936  -0.571  0.00  0.00    -0.205 F 
ATOM     11  C19 UNL     1      -0.587  -4.958  -1.707  0.00  0.00    +0.039 A 
ATOM     12  C20 UNL     1      -0.709  -3.568  -1.709  0.00  0.00    +0.013 A 
ENDBRANCH   4   6
BRANCH   3  13
ATOM     13  C28 UNL     1      -2.945  -1.161  -0.194  0.00  0.00    -0.015 A 
ATOM     14  C29 UNL     1      -3.963  -0.924  -1.128  0.00  0.00    +0.011 A 
ATOM     15  C30 UNL     1      -5.244  -1.437  -0.915  0.00  0.00    +0.039 A 
ATOM     16  C31 UNL     1      -5.502  -2.183   0.229  0.00  0.00    +0.123 A 
ATOM     17  F2  UNL     1      -6.731  -2.674   0.433  0.00  0.00    -0.205 F 
ATOM     18  C32 UNL     1      -4.505  -2.425   1.167  0.00  0.00    +0.039 A 
ATOM     19  C33 UNL     1      -3.224  -1.911   0.958  0.00  0.00    +0.011 A 
ENDBRANCH   3  13
BRANCH   2  20
ATOM     20  C6  UNL     1      -2.152   1.946  -0.492  0.00  0.00    +0.251 C 
ATOM     21  O1  UNL     1      -2.116   2.834  -1.335  0.00  0.00    -0.270 OA
ATOM     22  N1  UNL     1      -2.992   1.900   0.604  0.00  0.00    -0.281 N 
ATOM     23  H8  UNL     1      -2.879   1.099   1.211  0.00  0.00    +0.155 HD
BRANCH  22  24
ATOM     24  C7  UNL     1      -3.996   2.817   0.969  0.00  0.00    +0.034 A 
ATOM     25  C8  UNL     1      -4.743   2.519   2.117  0.00  0.00    +0.023 A 
ATOM     26  C9  UNL     1      -5.760   3.374   2.548  0.00  0.00    +0.002 A 
ATOM     27  C10 UNL     1      -6.041   4.536   1.835  0.00  0.00    +0.000 A 
ATOM     28  C11 UNL     1      -5.304   4.840   0.693  0.00  0.00    +0.002 A 
ATOM     29  C12 UNL     1      -4.286   3.984   0.260  0.00  0.00    +0.023 A 
ENDBRANCH  22  24
ENDBRANCH   2  20
BRANCH   1  31
ATOM     30  C1  UNL     1       0.897   3.090   0.008  0.00  0.00    +0.014 C 
ATOM     31  C2  UNL     1       1.059   1.991  -1.043  0.00  0.00    +0.030 C 
ATOM     32  C3  UNL     1       0.947   2.543  -2.464  0.00  0.00    +0.014 C 
ENDBRANCH   1  31
BRANCH   5  33
ATOM     33  C21 UNL     1       1.920  -0.927  -1.198  0.00  0.00    +0.124 C 
BRANCH  33  34
ATOM     34  C22 UNL     1       2.839  -0.979   0.026  0.00  0.00    +0.053 C 
BRANCH  34  35
ATOM     35  C23 UNL     1       4.258  -1.399  -0.363  0.00  0.00    +0.119 C 
BRANCH  35  36
ATOM     36  O2  UNL     1       4.799  -0.433  -1.251  0.00  0.00    -0.392 OA
ATOM     37  H23 UNL     1       5.636  -0.778  -1.610  0.00  0.00    +0.210 HD
ENDBRANCH  35  36
BRANCH  35  38
ATOM     38  C24 UNL     1       5.179  -1.596   0.844  0.00  0.00    +0.063 C 
BRANCH  38  39
ATOM     39  C25 UNL     1       5.417  -0.380   1.758  0.00  0.00    +0.128 C 
BRANCH  39  40
ATOM     40  O3  UNL     1       6.121  -0.871   2.914  0.00  0.00    -0.391 OA
ATOM     41  H27 UNL     1       5.502  -1.418   3.428  0.00  0.00    +0.210 HD
ENDBRANCH  39  40
BRANCH  39  42
ATOM     42  C26 UNL     1       6.294   0.718   1.151  0.00  0.00    +0.151 C 
BRANCH  42  43
ATOM     43  C27 UNL     1       5.557   1.812   0.433  0.00  0.00    +0.307 C 
ATOM     44  O4  UNL     1       5.981   2.434  -0.530  0.00  0.00    -0.251 OA
BRANCH  43  45
ATOM     45  O5  UNL     1       4.390   2.167   1.000  0.00  0.00    -0.481 OA
ATOM     46  H30 UNL     1       4.090   2.918   0.444  0.00  0.00    +0.295 HD
ENDBRANCH  43  45
ENDBRANCH  42  43
ENDBRANCH  39  42
ENDBRANCH  38  39
ENDBRANCH  35  38
ENDBRANCH  34  35
ENDBRANCH  33  34
ENDBRANCH   5  33
TORSDOF 15
