REMARK  Name = data/mahkota_dewa_dn/results/docking/ligands/pdb/beta-Sitosterol.pdb
REMARK  13 active torsions:
REMARK  status: ('A' for Active; 'I' for Inactive)
REMARK    1  A    between atoms: C1_1  and  C2_2
REMARK    2  A    between atoms: C2_2  and  C3_3
REMARK    3  A    between atoms: C3_3  and  C4_4
REMARK    4  A    between atoms: C3_3  and  C27_28
REMARK    5  A    between atoms: C4_4  and  C5_5
REMARK    6  A    between atoms: C5_5  and  C6_6
REMARK    7  A    between atoms: C6_6  and  C7_7
REMARK    8  A    between atoms: C6_6  and  C8_8
REMARK    9  A    between atoms: C12_12  and  C26_27
REMARK   10  A    between atoms: C20_20  and  C25_26
REMARK   11  A    between atoms: C23_23  and  O1_25
REMARK   12  A    between atoms: C27_28  and  C28_29
REMARK   13  A    between atoms: C27_28  and  C29_30
REMARK                            x       y       z     vdW  Elec       q    Type
REMARK                         _______ _______ _______ _____ _____    ______ ____
ROOT
ATOM      1  C8  UNL     1      -0.767  -1.069   1.769  0.00  0.00    -0.002 C 
ATOM      2  C9  UNL     1      -0.882  -2.503   1.193  0.00  0.00    +0.004 C 
ATOM      3  C10 UNL     1       0.431  -2.765   0.429  0.00  0.00    +0.004 C 
ATOM      4  C11 UNL     1       1.299  -1.550   0.741  0.00  0.00    -0.001 C 
ATOM      5  C12 UNL     1       0.286  -0.389   0.846  0.00  0.00    -0.026 C 
ATOM      6  C13 UNL     1       1.021   0.802   1.482  0.00  0.00    +0.007 C 
ATOM      7  C14 UNL     1       2.269   1.204   0.675  0.00  0.00    +0.005 C 
ATOM      8  C15 UNL     1       3.235   0.025   0.375  0.00  0.00    +0.003 C 
ATOM      9  C16 UNL     1       2.488  -1.233  -0.171  0.00  0.00    +0.000 C 
ATOM     10  C17 UNL     1       3.438  -2.435  -0.285  0.00  0.00    +0.031 C 
ATOM     11  C18 UNL     1       4.849  -2.085  -0.643  0.00  0.00    -0.027 C 
ATOM     12  C19 UNL     1       5.336  -0.834  -0.749  0.00  0.00    -0.065 C 
ATOM     13  C20 UNL     1       4.457   0.403  -0.553  0.00  0.00    -0.008 C 
ATOM     14  C21 UNL     1       5.321   1.493   0.128  0.00  0.00    +0.014 C 
ATOM     15  C22 UNL     1       6.561   1.906  -0.675  0.00  0.00    +0.032 C 
ATOM     16  C23 UNL     1       7.305   0.748  -1.346  0.00  0.00    +0.119 C 
ATOM     17  C24 UNL     1       6.833  -0.645  -0.918  0.00  0.00    +0.062 C 
ATOM     18  C25 UNL     1       3.966   0.909  -1.931  0.00  0.00    +0.016 C 
ATOM     19  C26 UNL     1      -0.312   0.039  -0.513  0.00  0.00    +0.012 C 
ENDROOT
BRANCH   1  20
ATOM     20  C6  UNL     1      -2.097  -0.314   2.045  0.00  0.00    -0.010 C 
ATOM     21  C7  UNL     1      -2.608  -0.703   3.444  0.00  0.00    +0.008 C 
BRANCH  20  22
ATOM     22  C5  UNL     1      -3.217  -0.547   1.005  0.00  0.00    +0.004 C 
BRANCH  22  23
ATOM     23  C4  UNL     1      -4.311   0.535   1.055  0.00  0.00    +0.004 C 
BRANCH  23  24
ATOM     24  C3  UNL     1      -5.433   0.334  -0.005  0.00  0.00    -0.009 C 
BRANCH  24  25
ATOM     25  C27 UNL     1      -4.921   0.664  -1.443  0.00  0.00    -0.014 C 
ATOM     26  C28 UNL     1      -4.880   2.159  -1.767  0.00  0.00    +0.007 C 
ATOM     27  C29 UNL     1      -5.683  -0.097  -2.533  0.00  0.00    +0.007 C 
ENDBRANCH  24  25
BRANCH  24  29
ATOM     28  C1  UNL     1      -7.943   0.917  -0.339  0.00  0.00    +0.004 C 
ATOM     29  C2  UNL     1      -6.673   1.136   0.467  0.00  0.00    +0.000 C 
ENDBRANCH  24  29
ENDBRANCH  23  24
ENDBRANCH  22  23
ENDBRANCH  20  22
ENDBRANCH   1  20
BRANCH  16  30
ATOM     30  O1  UNL     1       7.218   0.861  -2.768  0.00  0.00    -0.391 OA
ATOM     31  H37 UNL     1       7.576   1.730  -3.017  0.00  0.00    +0.210 HD
ENDBRANCH  16  30
TORSDOF 7
