REMARK  Name = data/mahkota_dewa_dn/results/docking/ligands/pdb/Chlorogenic_acid.pdb
REMARK  11 active torsions:
REMARK  status: ('A' for Active; 'I' for Inactive)
REMARK    1  A    between atoms: C2_2  and  O9_25
REMARK    2  A    between atoms: C3_3  and  O8_24
REMARK    3  A    between atoms: C4_4  and  O4_11
REMARK    4  A    between atoms: C6_6  and  C7_7
REMARK    5  A    between atoms: C6_6  and  O3_10
REMARK    6  A    between atoms: C7_7  and  O2_9
REMARK    7  A    between atoms: O4_11  and  C8_12
REMARK    8  A    between atoms: C8_12  and  C9_14
REMARK    9  A    between atoms: C10_15  and  C11_16
REMARK   10  A    between atoms: C13_18  and  O7_23
REMARK   11  A    between atoms: C14_19  and  O6_22
REMARK                            x       y       z     vdW  Elec       q    Type
REMARK                         _______ _______ _______ _____ _____    ______ ____
ROOT
ATOM      1  C1  UNL     1      -4.573   0.019   0.799  0.00  0.00    +0.080 C 
ATOM      2  C2  UNL     1      -3.340  -0.245   1.675  0.00  0.00    +0.150 C 
ATOM      3  C3  UNL     1      -2.394  -1.293   1.066  0.00  0.00    +0.184 C 
ATOM      4  C4  UNL     1      -1.853  -0.828  -0.305  0.00  0.00    +0.211 C 
ATOM      5  C5  UNL     1      -2.790   0.177  -1.001  0.00  0.00    +0.093 C 
ATOM      6  C6  UNL     1      -4.264  -0.090  -0.701  0.00  0.00    +0.168 C 
ENDROOT
BRANCH   6   7
ATOM      7  C7  UNL     1      -5.164   0.863  -1.496  0.00  0.00    +0.337 C 
ATOM      8  O1  UNL     1      -6.085   0.504  -2.215  0.00  0.00    -0.248 OA
BRANCH   7   9
ATOM      9  O2  UNL     1      -4.881   2.167  -1.331  0.00  0.00    -0.479 OA
ATOM     10  H8  UNL     1      -5.541   2.639  -1.883  0.00  0.00    +0.295 HD
ENDBRANCH   7   9
ENDBRANCH   6   7
BRANCH   6  11
ATOM     11  O3  UNL     1      -4.537  -1.447  -1.102  0.00  0.00    -0.377 OA
ATOM     12  H9  UNL     1      -5.427  -1.441  -1.517  0.00  0.00    +0.211 HD
ENDBRANCH   6  11
BRANCH   3  13
ATOM     13  O8  UNL     1      -3.122  -2.530   0.958  0.00  0.00    -0.386 OA
ATOM     14  H17 UNL     1      -3.664  -2.487   0.140  0.00  0.00    +0.210 HD
ENDBRANCH   3  13
BRANCH   2  15
ATOM     15  O9  UNL     1      -3.792  -0.686   2.958  0.00  0.00    -0.389 OA
ATOM     16  H18 UNL     1      -3.900  -1.657   2.883  0.00  0.00    +0.210 HD
ENDBRANCH   2  15
BRANCH   4  17
ATOM     17  O4  UNL     1      -0.592  -0.140  -0.141  0.00  0.00    -0.455 OA
BRANCH  17  18
ATOM     18  C8  UNL     1       0.504  -0.934  -0.042  0.00  0.00    +0.332 C 
ATOM     19  O5  UNL     1       0.526  -2.151  -0.078  0.00  0.00    -0.246 OA
BRANCH  18  20
ATOM     20  C9  UNL     1       1.683  -0.061   0.121  0.00  0.00    +0.092 C 
ATOM     21  C10 UNL     1       2.899  -0.608   0.277  0.00  0.00    +0.015 C 
BRANCH  21  22
ATOM     22  C11 UNL     1       4.136   0.171   0.428  0.00  0.00    -0.021 A 
ATOM     23  C12 UNL     1       5.320  -0.331  -0.135  0.00  0.00    +0.057 A 
ATOM     24  C13 UNL     1       6.509   0.376   0.013  0.00  0.00    +0.159 A 
ATOM     25  C14 UNL     1       6.533   1.572   0.725  0.00  0.00    +0.158 A 
ATOM     26  C15 UNL     1       5.379   2.075   1.302  0.00  0.00    +0.050 A 
ATOM     27  C16 UNL     1       4.180   1.371   1.159  0.00  0.00    +0.012 A 
BRANCH  25  28
ATOM     28  O6  UNL     1       7.704   2.259   0.865  0.00  0.00    -0.503 OA
ATOM     29  H15 UNL     1       8.365   1.717   0.389  0.00  0.00    +0.292 HD
ENDBRANCH  25  28
BRANCH  24  30
ATOM     30  O7  UNL     1       7.686  -0.066  -0.525  0.00  0.00    -0.503 OA
ATOM     31  H16 UNL     1       7.515  -0.909  -0.979  0.00  0.00    +0.292 HD
ENDBRANCH  24  30
ENDBRANCH  21  22
ENDBRANCH  18  20
ENDBRANCH  17  18
ENDBRANCH   4  17
TORSDOF 11
