REMARK  Name = data/mahkota_dewa_dn/results/docking/ligands/pdb/Glycitin.pdb
REMARK  11 active torsions:
REMARK  status: ('A' for Active; 'I' for Inactive)
REMARK    1  A    between atoms: C1_1  and  O1_2
REMARK    2  A    between atoms: O1_2  and  C2_3
REMARK    3  A    between atoms: C6_7  and  O2_9
REMARK    4  A    between atoms: C9_12  and  C11_15
REMARK    5  A    between atoms: C14_18  and  O5_21
REMARK    6  A    between atoms: O5_21  and  C17_22
REMARK    7  A    between atoms: C18_23  and  O10_32
REMARK    8  A    between atoms: C19_24  and  O9_31
REMARK    9  A    between atoms: C20_25  and  O8_30
REMARK   10  A    between atoms: C21_26  and  C22_28
REMARK   11  A    between atoms: C22_28  and  O7_29
REMARK                            x       y       z     vdW  Elec       q    Type
REMARK                         _______ _______ _______ _____ _____    ______ ____
ROOT
ATOM      1  C11 UNL     1       1.220   0.691   0.549  0.00  0.00    -0.011 A 
ATOM      2  C12 UNL     1       0.774   1.983   0.858  0.00  0.00    +0.012 A 
ATOM      3  C13 UNL     1      -0.594   2.266   0.930  0.00  0.00    +0.046 A 
ATOM      4  C14 UNL     1      -1.543   1.269   0.696  0.00  0.00    +0.124 A 
ATOM      5  C15 UNL     1      -1.109  -0.015   0.374  0.00  0.00    +0.046 A 
ATOM      6  C16 UNL     1       0.261  -0.301   0.303  0.00  0.00    +0.012 A 
ENDROOT
BRANCH   1  15
ATOM      7  C2  UNL     1       7.470  -1.070  -0.455  0.00  0.00    +0.127 A 
ATOM      8  C3  UNL     1       6.808  -0.393   0.570  0.00  0.00    +0.092 A 
ATOM      9  C4  UNL     1       5.429  -0.170   0.484  0.00  0.00    +0.145 A 
ATOM     10  C5  UNL     1       4.708  -0.617  -0.619  0.00  0.00    +0.106 A 
ATOM     11  C6  UNL     1       5.370  -1.295  -1.645  0.00  0.00    +0.135 A 
ATOM     12  C7  UNL     1       6.743  -1.520  -1.563  0.00  0.00    +0.092 A 
ATOM     13  C8  UNL     1       3.259  -0.362  -0.669  0.00  0.00    +0.204 A 
ATOM     14  O3  UNL     1       2.606  -0.759  -1.631  0.00  0.00    -0.286 OA
ATOM     15  C9  UNL     1       2.660   0.380   0.474  0.00  0.00    +0.064 A 
ATOM     16  C10 UNL     1       3.493   0.735   1.465  0.00  0.00    +0.208 A 
ATOM     17  O4  UNL     1       4.845   0.501   1.529  0.00  0.00    -0.462 OA
BRANCH   7  19
ATOM     18  C1  UNL     1       9.597  -0.918   0.602  0.00  0.00    +0.277 C 
ATOM     19  O1  UNL     1       8.806  -1.355  -0.497  0.00  0.00    -0.495 OA
ENDBRANCH   7  19
BRANCH  11  20
ATOM     20  O2  UNL     1       4.734  -1.766  -2.762  0.00  0.00    -0.506 OA
ATOM     21  H6  UNL     1       3.780  -1.533  -2.692  0.00  0.00    +0.292 HD
ENDBRANCH  11  20
ENDBRANCH   1  15
BRANCH   4  22
ATOM     22  O5  UNL     1      -2.840   1.683   0.799  0.00  0.00    -0.461 OA
BRANCH  22  23
ATOM     23  C17 UNL     1      -3.878   0.694   0.704  0.00  0.00    +0.339 C 
ATOM     24  C18 UNL     1      -5.169   1.373   1.212  0.00  0.00    +0.214 C 
ATOM     25  C19 UNL     1      -6.380   0.458   1.000  0.00  0.00    +0.180 C 
ATOM     26  C20 UNL     1      -6.422  -0.084  -0.434  0.00  0.00    +0.177 C 
ATOM     27  C21 UNL     1      -5.074  -0.729  -0.778  0.00  0.00    +0.179 C 
ATOM     28  O6  UNL     1      -4.029   0.246  -0.646  0.00  0.00    -0.331 OA
BRANCH  26  29
ATOM     29  O8  UNL     1      -7.499  -1.023  -0.529  0.00  0.00    -0.386 OA
ATOM     30  H20 UNL     1      -7.746  -1.070  -1.473  0.00  0.00    +0.210 HD
ENDBRANCH  26  29
BRANCH  25  31
ATOM     31  O9  UNL     1      -7.599   1.178   1.246  0.00  0.00    -0.386 OA
ATOM     32  H21 UNL     1      -8.317   0.545   1.052  0.00  0.00    +0.210 HD
ENDBRANCH  25  31
BRANCH  24  33
ATOM     33  O10 UNL     1      -5.033   1.682   2.611  0.00  0.00    -0.383 OA
ATOM     34  H22 UNL     1      -4.311   2.334   2.675  0.00  0.00    +0.210 HD
ENDBRANCH  24  33
BRANCH  27  35
ATOM     35  C22 UNL     1      -5.031  -1.255  -2.217  0.00  0.00    +0.190 C 
BRANCH  35  36
ATOM     36  O7  UNL     1      -5.302  -0.205  -3.143  0.00  0.00    -0.392 OA
ATOM     37  H19 UNL     1      -4.606   0.466  -2.994  0.00  0.00    +0.210 HD
ENDBRANCH  35  36
ENDBRANCH  27  35
ENDBRANCH  22  23
ENDBRANCH   4  22
TORSDOF 10
