REMARK  Name = data/mahkota_dewa_dn/results/docking/ligands/pdb/Icariside_C3.pdb
REMARK  21 active torsions:
REMARK  status: ('A' for Active; 'I' for Inactive)
REMARK    1  A    between atoms: C1_1  and  C2_2
REMARK    2  A    between atoms: C3_3  and  O15_48
REMARK    3  A    between atoms: C4_4  and  O14_47
REMARK    4  A    between atoms: C5_5  and  O13_46
REMARK    5  A    between atoms: C6_6  and  O2_8
REMARK    6  A    between atoms: O2_8  and  C7_9
REMARK    7  A    between atoms: C8_10  and  C27_38
REMARK    8  A    between atoms: C12_16  and  O11_37
REMARK    9  A    between atoms: C14_18  and  O5_25
REMARK   10  A    between atoms: C15_19  and  C16_20
REMARK   11  A    between atoms: C16_20  and  C17_21
REMARK   12  A    between atoms: C18_22  and  C19_23
REMARK   13  A    between atoms: C18_22  and  C20_24
REMARK   14  A    between atoms: O5_25  and  C21_26
REMARK   15  A    between atoms: C22_27  and  O10_36
REMARK   16  A    between atoms: C23_28  and  O9_35
REMARK   17  A    between atoms: C24_29  and  O8_34
REMARK   18  A    between atoms: C25_30  and  C26_32
REMARK   19  A    between atoms: C26_32  and  O7_33
REMARK   20  A    between atoms: C30_41  and  O12_44
REMARK   21  A    between atoms: O12_44  and  C33_45
REMARK                            x       y       z     vdW  Elec       q    Type
REMARK                         _______ _______ _______ _____ _____    ______ ____
ROOT
ATOM      1  C7  UNL     1      -2.574  -1.180  -0.988  0.00  0.00    +0.214 A 
ATOM      2  C8  UNL     1      -2.201   0.096  -1.205  0.00  0.00    +0.181 A 
ATOM      3  O3  UNL     1      -0.894   0.526  -1.339  0.00  0.00    -0.450 OA
ATOM      4  C9  UNL     1       0.128  -0.387  -1.247  0.00  0.00    +0.150 A 
ATOM      5  C10 UNL     1      -0.114  -1.745  -1.066  0.00  0.00    +0.109 A 
ATOM      6  C11 UNL     1      -1.504  -2.212  -0.966  0.00  0.00    +0.238 A 
ATOM      7  O4  UNL     1      -1.739  -3.415  -0.879  0.00  0.00    -0.283 OA
ATOM      8  C12 UNL     1       0.959  -2.634  -0.984  0.00  0.00    +0.135 A 
ATOM      9  C13 UNL     1       2.270  -2.169  -1.066  0.00  0.00    +0.092 A 
ATOM     10  C14 UNL     1       2.526  -0.806  -1.244  0.00  0.00    +0.134 A 
ATOM     11  C15 UNL     1       1.448   0.102  -1.347  0.00  0.00    +0.041 A 
ENDROOT
BRANCH   2  12
ATOM     12  C27 UNL     1      -3.177   1.202  -1.266  0.00  0.00    +0.021 A 
ATOM     13  C28 UNL     1      -3.027   2.310  -0.422  0.00  0.00    +0.015 A 
ATOM     14  C29 UNL     1      -3.945   3.367  -0.454  0.00  0.00    +0.046 A 
ATOM     15  C30 UNL     1      -5.023   3.332  -1.338  0.00  0.00    +0.120 A 
ATOM     16  C31 UNL     1      -5.170   2.236  -2.190  0.00  0.00    +0.046 A 
ATOM     17  C32 UNL     1      -4.255   1.180  -2.159  0.00  0.00    +0.015 A 
BRANCH  15  18
ATOM     18  O12 UNL     1      -5.989   4.291  -1.468  0.00  0.00    -0.495 OA
ATOM     19  C33 UNL     1      -5.878   5.433  -0.628  0.00  0.00    +0.277 C 
ENDBRANCH  15  18
ENDBRANCH   2  12
BRANCH   8  20
ATOM     20  O11 UNL     1       0.800  -3.985  -0.819  0.00  0.00    -0.506 OA
ATOM     21  H30 UNL     1      -0.164  -4.179  -0.792  0.00  0.00    +0.292 HD
ENDBRANCH   8  20
BRANCH  10  22
ATOM     22  O5  UNL     1       3.777  -0.256  -1.334  0.00  0.00    -0.460 OA
BRANCH  22  23
ATOM     23  C21 UNL     1       4.927  -1.115  -1.220  0.00  0.00    +0.339 C 
ATOM     24  C22 UNL     1       6.134  -0.231  -1.569  0.00  0.00    +0.214 C 
ATOM     25  C23 UNL     1       7.413  -1.072  -1.606  0.00  0.00    +0.180 C 
ATOM     26  C24 UNL     1       7.340  -2.297  -0.682  0.00  0.00    +0.177 C 
ATOM     27  C25 UNL     1       6.350  -2.108   0.485  0.00  0.00    +0.179 C 
ATOM     28  O6  UNL     1       5.052  -1.614   0.110  0.00  0.00    -0.331 OA
BRANCH  26  29
ATOM     29  O8  UNL     1       6.877  -3.413  -1.470  0.00  0.00    -0.386 OA
ATOM     30  H27 UNL     1       7.648  -3.749  -1.963  0.00  0.00    +0.210 HD
ENDBRANCH  26  29
BRANCH  24  31
ATOM     31  O10 UNL     1       5.988   0.443  -2.831  0.00  0.00    -0.383 OA
ATOM     32  H29 UNL     1       5.074   0.790  -2.840  0.00  0.00    +0.210 HD
ENDBRANCH  24  31
BRANCH  25  33
ATOM     33  O9  UNL     1       8.529  -0.241  -1.264  0.00  0.00    -0.386 OA
ATOM     34  H28 UNL     1       8.530   0.485  -1.918  0.00  0.00    +0.210 HD
ENDBRANCH  25  33
BRANCH  27  35
ATOM     35  C26 UNL     1       6.909  -1.201   1.591  0.00  0.00    +0.190 C 
BRANCH  35  36
ATOM     36  O7  UNL     1       8.108  -1.737   2.135  0.00  0.00    -0.392 OA
ATOM     37  H26 UNL     1       8.414  -1.114   2.817  0.00  0.00    +0.210 HD
ENDBRANCH  35  36
ENDBRANCH  27  35
ENDBRANCH  22  23
ENDBRANCH  10  22
BRANCH  11  38
ATOM     38  C16 UNL     1       1.700   1.590  -1.514  0.00  0.00    +0.069 C 
BRANCH  38  39
ATOM     39  C17 UNL     1       1.769   2.307  -0.191  0.00  0.00    -0.023 C 
ATOM     40  C18 UNL     1       2.816   2.952   0.361  0.00  0.00    -0.079 C 
ATOM     41  C19 UNL     1       4.182   3.083  -0.251  0.00  0.00    +0.038 C 
ATOM     42  C20 UNL     1       2.681   3.610   1.710  0.00  0.00    +0.038 C 
ENDBRANCH  38  39
ENDBRANCH  11  38
BRANCH   1  43
ATOM     43  O2  UNL     1      -3.904  -1.542  -0.843  0.00  0.00    -0.453 OA
BRANCH  43  49
ATOM     44  C1  UNL     1      -7.904  -2.053   0.275  0.00  0.00    +0.041 C 
ATOM     45  C2  UNL     1      -6.506  -1.587   0.664  0.00  0.00    +0.150 C 
ATOM     46  C3  UNL     1      -6.429  -1.249   2.169  0.00  0.00    +0.174 C 
ATOM     47  C4  UNL     1      -5.011  -1.507   2.715  0.00  0.00    +0.180 C 
ATOM     48  C5  UNL     1      -3.961  -1.260   1.626  0.00  0.00    +0.214 C 
ATOM     49  C6  UNL     1      -4.215  -2.186   0.401  0.00  0.00    +0.339 C 
ATOM     50  O1  UNL     1      -5.588  -2.639   0.362  0.00  0.00    -0.334 OA
BRANCH  46  51
ATOM     51  O15 UNL     1      -6.772   0.125   2.365  0.00  0.00    -0.387 OA
ATOM     52  H40 UNL     1      -7.715   0.233   2.145  0.00  0.00    +0.210 HD
ENDBRANCH  46  51
BRANCH  47  53
ATOM     53  O14 UNL     1      -4.868  -2.858   3.193  0.00  0.00    -0.386 OA
ATOM     54  H39 UNL     1      -5.266  -3.454   2.528  0.00  0.00    +0.210 HD
ENDBRANCH  47  53
BRANCH  48  55
ATOM     55  O13 UNL     1      -2.644  -1.488   2.160  0.00  0.00    -0.383 OA
ATOM     56  H38 UNL     1      -2.736  -2.234   2.789  0.00  0.00    +0.210 HD
ENDBRANCH  48  55
ENDBRANCH  43  49
ENDBRANCH   1  43
TORSDOF 17
