REMARK  Name = data/mahkota_dewa_dn/results/docking/ligands/pdb/Isovitexin.pdb
REMARK  10 active torsions:
REMARK  status: ('A' for Active; 'I' for Inactive)
REMARK    1  A    between atoms: C3_3  and  O10_31
REMARK    2  A    between atoms: C6_6  and  C7_7
REMARK    3  A    between atoms: C13_15  and  O9_30
REMARK    4  A    between atoms: C14_16  and  C16_19
REMARK    5  A    between atoms: C15_17  and  O3_18
REMARK    6  A    between atoms: C17_20  and  O8_29
REMARK    7  A    between atoms: C18_21  and  O7_28
REMARK    8  A    between atoms: C19_22  and  O6_27
REMARK    9  A    between atoms: C20_23  and  C21_25
REMARK   10  A    between atoms: C21_25  and  O5_26
REMARK                            x       y       z     vdW  Elec       q    Type
REMARK                         _______ _______ _______ _____ _____    ______ ____
ROOT
ATOM      1  C7  UNL     1       3.683   0.116   0.473  0.00  0.00    +0.139 A 
ATOM      2  C8  UNL     1       3.080   0.706   1.515  0.00  0.00    +0.098 A 
ATOM      3  C9  UNL     1       1.612   0.747   1.558  0.00  0.00    +0.197 A 
ATOM      4  O1  UNL     1       1.014   1.270   2.492  0.00  0.00    -0.287 OA
ATOM      5  C10 UNL     1       0.888   0.137   0.434  0.00  0.00    +0.106 A 
ATOM      6  C11 UNL     1       1.637  -0.448  -0.582  0.00  0.00    +0.146 A 
ATOM      7  O2  UNL     1       3.009  -0.484  -0.579  0.00  0.00    -0.454 OA
ATOM      8  C12 UNL     1       0.996  -1.044  -1.665  0.00  0.00    +0.093 A 
ATOM      9  C13 UNL     1      -0.399  -1.039  -1.729  0.00  0.00    +0.130 A 
ATOM     10  C14 UNL     1      -1.184  -0.446  -0.725  0.00  0.00    +0.067 A 
ATOM     11  C15 UNL     1      -0.514   0.131   0.371  0.00  0.00    +0.140 A 
ENDROOT
BRANCH   1  17
ATOM     12  C1  UNL     1       5.762  -1.168  -0.023  0.00  0.00    +0.015 A 
ATOM     13  C2  UNL     1       7.153  -1.266  -0.130  0.00  0.00    +0.046 A 
ATOM     14  C3  UNL     1       7.939  -0.156   0.156  0.00  0.00    +0.117 A 
ATOM     15  C4  UNL     1       7.359   1.045   0.543  0.00  0.00    +0.046 A 
ATOM     16  C5  UNL     1       5.969   1.141   0.650  0.00  0.00    +0.015 A 
ATOM     17  C6  UNL     1       5.153   0.033   0.376  0.00  0.00    +0.018 A 
BRANCH  14  18
ATOM     18  O10 UNL     1       9.298  -0.204   0.066  0.00  0.00    -0.507 OA
ATOM     19  H20 UNL     1       9.562  -1.096  -0.211  0.00  0.00    +0.292 HD
ENDBRANCH  14  18
ENDBRANCH   1  17
BRANCH  10  20
ATOM     20  C16 UNL     1      -2.701  -0.412  -0.850  0.00  0.00    +0.187 C 
ATOM     21  C17 UNL     1      -3.415  -1.212   0.266  0.00  0.00    +0.179 C 
ATOM     22  C18 UNL     1      -4.928  -1.012   0.140  0.00  0.00    +0.177 C 
ATOM     23  C19 UNL     1      -5.278   0.475   0.107  0.00  0.00    +0.176 C 
ATOM     24  C20 UNL     1      -4.522   1.140  -1.048  0.00  0.00    +0.175 C 
ATOM     25  O4  UNL     1      -3.108   0.967  -0.876  0.00  0.00    -0.361 OA
BRANCH  23  26
ATOM     26  O6  UNL     1      -6.693   0.626  -0.041  0.00  0.00    -0.386 OA
ATOM     27  H16 UNL     1      -7.078  -0.015   0.593  0.00  0.00    +0.210 HD
ENDBRANCH  23  26
BRANCH  22  28
ATOM     28  O7  UNL     1      -5.611  -1.632   1.244  0.00  0.00    -0.386 OA
ATOM     29  H17 UNL     1      -5.200  -2.516   1.325  0.00  0.00    +0.210 HD
ENDBRANCH  22  28
BRANCH  21  30
ATOM     30  O8  UNL     1      -3.165  -2.627   0.179  0.00  0.00    -0.386 OA
ATOM     31  H18 UNL     1      -2.198  -2.741   0.225  0.00  0.00    +0.210 HD
ENDBRANCH  21  30
BRANCH  24  32
ATOM     32  C21 UNL     1      -4.838   2.640  -1.180  0.00  0.00    +0.190 C 
BRANCH  32  33
ATOM     33  O5  UNL     1      -4.727   3.348   0.054  0.00  0.00    -0.392 OA
ATOM     34  H15 UNL     1      -5.502   3.103   0.589  0.00  0.00    +0.210 HD
ENDBRANCH  32  33
ENDBRANCH  24  32
ENDBRANCH  10  20
BRANCH  11  35
ATOM     35  O3  UNL     1      -1.269   0.672   1.381  0.00  0.00    -0.505 OA
ATOM     36  H7  UNL     1      -0.674   1.117   2.026  0.00  0.00    +0.292 HD
ENDBRANCH  11  35
BRANCH   9  37
ATOM     37  O9  UNL     1      -1.018  -1.639  -2.790  0.00  0.00    -0.506 OA
ATOM     38  H19 UNL     1      -0.356  -1.895  -3.454  0.00  0.00    +0.292 HD
ENDBRANCH   9  37
TORSDOF 10
