REMARK  Name = data/mahkota_dewa_dn/results/docking/ligands/pdb/Kaempferol-3-O-beta-D-glucoside.pdb
REMARK  11 active torsions:
REMARK  status: ('A' for Active; 'I' for Inactive)
REMARK    1  A    between atoms: C3_3  and  O11_32
REMARK    2  A    between atoms: C6_6  and  C7_7
REMARK    3  A    between atoms: C8_8  and  O5_20
REMARK    4  A    between atoms: C11_12  and  O4_19
REMARK    5  A    between atoms: C13_14  and  O3_18
REMARK    6  A    between atoms: O5_20  and  C16_21
REMARK    7  A    between atoms: C17_22  and  O10_31
REMARK    8  A    between atoms: C18_23  and  O9_30
REMARK    9  A    between atoms: C19_24  and  O8_29
REMARK   10  A    between atoms: C20_25  and  C21_27
REMARK   11  A    between atoms: C21_27  and  O7_28
REMARK                            x       y       z     vdW  Elec       q    Type
REMARK                         _______ _______ _______ _____ _____    ______ ____
ROOT
ATOM      1  C7  UNL     1      -1.802  -0.437  -0.324  0.00  0.00    +0.181 A 
ATOM      2  C8  UNL     1      -0.612  -0.847  -0.802  0.00  0.00    +0.214 A 
ATOM      3  C9  UNL     1      -0.227  -0.464  -2.194  0.00  0.00    +0.238 A 
ATOM      4  O1  UNL     1       0.757  -0.961  -2.730  0.00  0.00    -0.283 OA
ATOM      5  C10 UNL     1      -1.100   0.523  -2.868  0.00  0.00    +0.109 A 
ATOM      6  C11 UNL     1      -0.787   1.110  -4.102  0.00  0.00    +0.135 A 
ATOM      7  C12 UNL     1      -1.667   2.017  -4.698  0.00  0.00    +0.091 A 
ATOM      8  C13 UNL     1      -2.859   2.339  -4.059  0.00  0.00    +0.124 A 
ATOM      9  C14 UNL     1      -3.181   1.779  -2.830  0.00  0.00    +0.092 A 
ATOM     10  C15 UNL     1      -2.294   0.876  -2.236  0.00  0.00    +0.147 A 
ATOM     11  O2  UNL     1      -2.678   0.380  -1.017  0.00  0.00    -0.451 OA
ENDROOT
BRANCH   1  17
ATOM     12  C1  UNL     1      -2.815   0.215   1.860  0.00  0.00    +0.015 A 
ATOM     13  C2  UNL     1      -3.287  -0.089   3.141  0.00  0.00    +0.046 A 
ATOM     14  C3  UNL     1      -3.243  -1.404   3.590  0.00  0.00    +0.117 A 
ATOM     15  C4  UNL     1      -2.740  -2.414   2.781  0.00  0.00    +0.046 A 
ATOM     16  C5  UNL     1      -2.271  -2.109   1.501  0.00  0.00    +0.015 A 
ATOM     17  C6  UNL     1      -2.293  -0.788   1.027  0.00  0.00    +0.021 A 
BRANCH  14  18
ATOM     18  O11 UNL     1      -3.691  -1.746   4.831  0.00  0.00    -0.507 OA
ATOM     19  H20 UNL     1      -4.032  -0.951   5.271  0.00  0.00    +0.292 HD
ENDBRANCH  14  18
ENDBRANCH   1  17
BRANCH   8  20
ATOM     20  O3  UNL     1      -3.690   3.225  -4.678  0.00  0.00    -0.507 OA
ATOM     21  H7  UNL     1      -4.490   3.344  -4.139  0.00  0.00    +0.292 HD
ENDBRANCH   8  20
BRANCH   6  22
ATOM     22  O4  UNL     1       0.387   0.825  -4.738  0.00  0.00    -0.506 OA
ATOM     23  H8  UNL     1       0.435   1.292  -5.588  0.00  0.00    +0.292 HD
ENDBRANCH   6  22
BRANCH   2  24
ATOM     24  O5  UNL     1       0.254  -1.666  -0.097  0.00  0.00    -0.453 OA
BRANCH  24  25
ATOM     25  C16 UNL     1       1.216  -0.897   0.653  0.00  0.00    +0.340 C 
ATOM     26  C17 UNL     1       2.211  -1.901   1.287  0.00  0.00    +0.214 C 
ATOM     27  C18 UNL     1       3.542  -1.233   1.697  0.00  0.00    +0.180 C 
ATOM     28  C19 UNL     1       3.379   0.283   1.837  0.00  0.00    +0.177 C 
ATOM     29  C20 UNL     1       2.790   0.911   0.557  0.00  0.00    +0.179 C 
ATOM     30  O6  UNL     1       1.913   0.033  -0.167  0.00  0.00    -0.331 OA
BRANCH  28  31
ATOM     31  O8  UNL     1       2.480   0.518   2.940  0.00  0.00    -0.386 OA
ATOM     32  H17 UNL     1       2.534   1.467   3.157  0.00  0.00    +0.210 HD
ENDBRANCH  28  31
BRANCH  27  33
ATOM     33  O9  UNL     1       4.588  -1.513   0.763  0.00  0.00    -0.386 OA
ATOM     34  H18 UNL     1       4.650  -2.482   0.677  0.00  0.00    +0.210 HD
ENDBRANCH  27  33
BRANCH  26  35
ATOM     35  O10 UNL     1       1.622  -2.534   2.440  0.00  0.00    -0.383 OA
ATOM     36  H19 UNL     1       1.427  -1.829   3.087  0.00  0.00    +0.210 HD
ENDBRANCH  26  35
BRANCH  29  37
ATOM     37  C21 UNL     1       3.875   1.337  -0.439  0.00  0.00    +0.190 C 
BRANCH  37  38
ATOM     38  O7  UNL     1       3.262   1.996  -1.550  0.00  0.00    -0.392 OA
ATOM     39  H16 UNL     1       2.645   1.334  -1.930  0.00  0.00    +0.210 HD
ENDBRANCH  37  38
ENDBRANCH  29  37
ENDBRANCH  24  25
ENDBRANCH   2  24
TORSDOF 11
