REMARK  Name = data/mahkota_dewa_dn/results/docking/ligands/pdb/Losartan.pdb
REMARK  10 active torsions:
REMARK  status: ('A' for Active; 'I' for Inactive)
REMARK    1  A    between atoms: C1_1  and  C2_2
REMARK    2  A    between atoms: C2_2  and  C3_3
REMARK    3  A    between atoms: C3_3  and  C4_4
REMARK    4  A    between atoms: C4_4  and  C5_5
REMARK    5  A    between atoms: C7_9  and  C22_29
REMARK    6  A    between atoms: N2_10  and  C8_11
REMARK    7  A    between atoms: C8_11  and  C9_12
REMARK    8  A    between atoms: C12_15  and  C15_18
REMARK    9  A    between atoms: C20_23  and  C21_24
REMARK   10  A    between atoms: C22_29  and  O1_30
REMARK                            x       y       z     vdW  Elec       q    Type
REMARK                         _______ _______ _______ _____ _____    ______ ____
ROOT
ATOM      1  C9  UNL     1      -0.074  -0.734   0.400  0.00  0.00    -0.028 A 
ATOM      2  C10 UNL     1      -0.450   0.247   1.327  0.00  0.00    +0.006 A 
ATOM      3  C11 UNL     1      -1.621   0.990   1.147  0.00  0.00    +0.009 A 
ATOM      4  C12 UNL     1      -2.457   0.761   0.046  0.00  0.00    -0.017 A 
ATOM      5  C13 UNL     1      -2.089  -0.232  -0.873  0.00  0.00    +0.009 A 
ATOM      6  C14 UNL     1      -0.918  -0.975  -0.695  0.00  0.00    +0.006 A 
ENDROOT
BRANCH   4   7
ATOM      7  C15 UNL     1      -3.681   1.555  -0.151  0.00  0.00    -0.007 A 
ATOM      8  C16 UNL     1      -3.545   2.889  -0.588  0.00  0.00    +0.009 A 
ATOM      9  C17 UNL     1      -4.659   3.688  -0.847  0.00  0.00    +0.001 A 
ATOM     10  C18 UNL     1      -5.937   3.169  -0.680  0.00  0.00    +0.001 A 
ATOM     11  C19 UNL     1      -6.099   1.854  -0.245  0.00  0.00    +0.012 A 
ATOM     12  C20 UNL     1      -4.984   1.039   0.035  0.00  0.00    +0.030 A 
BRANCH  12  13
ATOM     13  C21 UNL     1      -5.239  -0.314   0.512  0.00  0.00    +0.205 A 
ATOM     14  N3  UNL     1      -4.607  -0.909   1.539  0.00  0.00    -0.133 NA
ATOM     15  N4  UNL     1      -5.237  -2.089   1.554  0.00  0.00    -0.176 N 
ATOM     16  N5  UNL     1      -6.209  -2.251   0.650  0.00  0.00    -0.049 NA
ATOM     17  N6  UNL     1      -6.229  -1.109  -0.023  0.00  0.00    -0.108 NA
ATOM     18  H20 UNL     1      -4.998  -2.822   2.217  0.00  0.00    +0.214 HD
ENDBRANCH  12  13
ENDBRANCH   4   7
BRANCH   1  19
ATOM     19  C8  UNL     1       1.165  -1.581   0.579  0.00  0.00    +0.158 C 
BRANCH  19  25
ATOM     20  C5  UNL     1       3.097   0.027   0.245  0.00  0.00    +0.112 A 
ATOM     21  N1  UNL     1       4.076   0.547   0.957  0.00  0.00    -0.220 NA
ATOM     22  C6  UNL     1       3.969   0.010   2.210  0.00  0.00    +0.153 A 
ATOM     23 CL1  UNL     1       5.061   0.401   3.454  0.00  0.00    -0.060 Cl
ATOM     24  C7  UNL     1       2.903  -0.862   2.280  0.00  0.00    +0.083 A 
ATOM     25  N2  UNL     1       2.330  -0.820   1.022  0.00  0.00    -0.324 N 
BRANCH  20  26
ATOM     26  C4  UNL     1       2.856   0.324  -1.201  0.00  0.00    +0.074 C 
BRANCH  26  27
ATOM     27  C3  UNL     1       3.547  -0.671  -2.138  0.00  0.00    +0.007 C 
BRANCH  27  29
ATOM     28  C1  UNL     1       5.733   0.623  -2.417  0.00  0.00    +0.004 C 
ATOM     29  C2  UNL     1       5.078  -0.701  -2.059  0.00  0.00    -0.003 C 
ENDBRANCH  27  29
ENDBRANCH  26  27
ENDBRANCH  20  26
BRANCH  24  30
ATOM     30  C22 UNL     1       2.406  -1.681   3.404  0.00  0.00    +0.212 C 
BRANCH  30  31
ATOM     31  O1  UNL     1       2.665  -3.035   3.067  0.00  0.00    -0.389 OA
ATOM     32  H23 UNL     1       3.634  -3.131   3.038  0.00  0.00    +0.210 HD
ENDBRANCH  30  31
ENDBRANCH  24  30
ENDBRANCH  19  25
ENDBRANCH   1  19
TORSDOF 9
