REMARK  Name = data/mahkota_dewa_dn/results/docking/ligands/pdb/Mahkoside_A.pdb
REMARK  13 active torsions:
REMARK  status: ('A' for Active; 'I' for Inactive)
REMARK    1  A    between atoms: C1_1  and  O1_2
REMARK    2  A    between atoms: O1_2  and  C2_3
REMARK    3  A    between atoms: C4_5  and  O10_30
REMARK    4  A    between atoms: C5_6  and  C14_21
REMARK    5  A    between atoms: C6_7  and  O2_9
REMARK    6  A    between atoms: O2_9  and  C8_10
REMARK    7  A    between atoms: C9_11  and  O7_20
REMARK    8  A    between atoms: C10_12  and  O6_19
REMARK    9  A    between atoms: C11_13  and  O5_18
REMARK   10  A    between atoms: C12_14  and  C13_16
REMARK   11  A    between atoms: C13_16  and  O4_17
REMARK   12  A    between atoms: C14_21  and  C15_23
REMARK   13  A    between atoms: C18_26  and  O9_29
REMARK                            x       y       z     vdW  Elec       q    Type
REMARK                         _______ _______ _______ _____ _____    ______ ____
ROOT
ATOM      1  C2  UNL     1       1.993  -2.402   2.668  0.00  0.00    +0.127 A 
ATOM      2  C3  UNL     1       2.389  -3.219   1.611  0.00  0.00    +0.092 A 
ATOM      3  C4  UNL     1       2.247  -2.774   0.294  0.00  0.00    +0.135 A 
ATOM      4  C5  UNL     1       1.724  -1.504   0.000  0.00  0.00    +0.105 A 
ATOM      5  C6  UNL     1       1.283  -0.714   1.070  0.00  0.00    +0.142 A 
ATOM      6  C7  UNL     1       1.443  -1.149   2.391  0.00  0.00    +0.092 A 
ENDROOT
BRANCH   1   8
ATOM      7  C1  UNL     1       2.640  -3.973   4.331  0.00  0.00    +0.277 C 
ATOM      8  O1  UNL     1       2.082  -2.706   3.998  0.00  0.00    -0.495 OA
ENDBRANCH   1   8
BRANCH   4   9
ATOM      9  C14 UNL     1       1.625  -1.090  -1.428  0.00  0.00    +0.200 C 
ATOM     10  O8  UNL     1       1.565  -1.967  -2.292  0.00  0.00    -0.286 OA
BRANCH   9  11
ATOM     11  C15 UNL     1       1.624   0.322  -1.870  0.00  0.00    +0.023 A 
ATOM     12  C16 UNL     1       0.709   0.707  -2.858  0.00  0.00    +0.015 A 
ATOM     13  C17 UNL     1       0.664   2.034  -3.284  0.00  0.00    +0.046 A 
ATOM     14  C18 UNL     1       1.545   2.961  -2.737  0.00  0.00    +0.117 A 
ATOM     15  C19 UNL     1       2.484   2.582  -1.780  0.00  0.00    +0.046 A 
ATOM     16  C20 UNL     1       2.530   1.254  -1.350  0.00  0.00    +0.015 A 
BRANCH  14  17
ATOM     17  O9  UNL     1       1.456   4.250  -3.171  0.00  0.00    -0.507 OA
ATOM     18  H21 UNL     1       2.192   4.758  -2.791  0.00  0.00    +0.292 HD
ENDBRANCH  14  17
ENDBRANCH   9  11
ENDBRANCH   4   9
BRANCH   3  19
ATOM     19  O10 UNL     1       2.652  -3.657  -0.677  0.00  0.00    -0.506 OA
ATOM     20  H22 UNL     1       2.331  -3.316  -1.543  0.00  0.00    +0.292 HD
ENDBRANCH   3  19
BRANCH   5  21
ATOM     21  O2  UNL     1       0.744   0.530   0.882  0.00  0.00    -0.460 OA
BRANCH  21  22
ATOM     22  C8  UNL     1      -0.698   0.506   0.876  0.00  0.00    +0.339 C 
ATOM     23  C9  UNL     1      -1.158   1.974   0.728  0.00  0.00    +0.214 C 
ATOM     24  C10 UNL     1      -2.665   2.055   0.478  0.00  0.00    +0.180 C 
ATOM     25  C11 UNL     1      -3.112   1.103  -0.631  0.00  0.00    +0.177 C 
ATOM     26  C12 UNL     1      -2.603  -0.310  -0.313  0.00  0.00    +0.179 C 
ATOM     27  O3  UNL     1      -1.178  -0.286  -0.218  0.00  0.00    -0.331 OA
BRANCH  25  28
ATOM     28  O5  UNL     1      -4.539   1.130  -0.745  0.00  0.00    -0.386 OA
ATOM     29  H14 UNL     1      -4.807   2.065  -0.631  0.00  0.00    +0.210 HD
ENDBRANCH  25  28
BRANCH  24  30
ATOM     30  O6  UNL     1      -3.039   3.403   0.138  0.00  0.00    -0.386 OA
ATOM     31  H15 UNL     1      -2.543   3.669  -0.659  0.00  0.00    +0.210 HD
ENDBRANCH  24  30
BRANCH  23  32
ATOM     32  O7  UNL     1      -0.848   2.741   1.902  0.00  0.00    -0.383 OA
ATOM     33  H16 UNL     1      -1.325   3.589   1.817  0.00  0.00    +0.210 HD
ENDBRANCH  23  32
BRANCH  26  34
ATOM     34  C13 UNL     1      -3.014  -1.308  -1.405  0.00  0.00    +0.190 C 
BRANCH  34  35
ATOM     35  O4  UNL     1      -4.422  -1.514  -1.435  0.00  0.00    -0.392 OA
ATOM     36  H13 UNL     1      -4.844  -0.631  -1.360  0.00  0.00    +0.210 HD
ENDBRANCH  34  35
ENDBRANCH  26  34
ENDBRANCH  21  22
ENDBRANCH   5  21
TORSDOF 12
