REMARK  Name = data/mahkota_dewa_dn/results/docking/ligands/pdb/Mangiferin.pdb
REMARK  10 active torsions:
REMARK  status: ('A' for Active; 'I' for Inactive)
REMARK    1  A    between atoms: C5_5  and  O2_8
REMARK    2  A    between atoms: C6_6  and  O1_7
REMARK    3  A    between atoms: C10_14  and  O11_30
REMARK    4  A    between atoms: C11_15  and  C14_19
REMARK    5  A    between atoms: C12_16  and  O5_18
REMARK    6  A    between atoms: C15_20  and  O10_29
REMARK    7  A    between atoms: C16_21  and  O9_28
REMARK    8  A    between atoms: C17_22  and  O8_27
REMARK    9  A    between atoms: C18_23  and  C19_25
REMARK   10  A    between atoms: C19_25  and  O7_26
REMARK                            x       y       z     vdW  Elec       q    Type
REMARK                         _______ _______ _______ _____ _____    ______ ____
ROOT
ATOM      1  C1  UNL     1       5.134   1.295  -0.289  0.00  0.00    +0.064 A 
ATOM      2  C2  UNL     1       4.073   0.412  -0.065  0.00  0.00    +0.068 A 
ATOM      3  C3  UNL     1       4.308  -0.922   0.275  0.00  0.00    +0.143 A 
ATOM      4  C4  UNL     1       5.619  -1.391   0.380  0.00  0.00    +0.096 A 
ATOM      5  C5  UNL     1       6.672  -0.518   0.141  0.00  0.00    +0.162 A 
ATOM      6  C6  UNL     1       6.431   0.820  -0.166  0.00  0.00    +0.159 A 
ATOM      7  O3  UNL     1       3.310  -1.833   0.516  0.00  0.00    -0.454 OA
ATOM      8  C7  UNL     1       2.006  -1.417   0.409  0.00  0.00    +0.146 A 
ATOM      9  C8  UNL     1       1.622  -0.121   0.072  0.00  0.00    +0.106 A 
ATOM     10  C9  UNL     1       2.682   0.869  -0.172  0.00  0.00    +0.204 A 
ATOM     11  O4  UNL     1       2.399   2.029  -0.452  0.00  0.00    -0.286 OA
ATOM     12  C10 UNL     1       0.260   0.219  -0.018  0.00  0.00    +0.140 A 
ATOM     13  C11 UNL     1      -0.735  -0.751   0.189  0.00  0.00    +0.067 A 
ATOM     14  C12 UNL     1      -0.318  -2.026   0.611  0.00  0.00    +0.130 A 
ATOM     15  C13 UNL     1       1.031  -2.369   0.692  0.00  0.00    +0.093 A 
ENDROOT
BRANCH  13  16
ATOM     16  C14 UNL     1      -2.219  -0.464   0.021  0.00  0.00    +0.187 C 
ATOM     17  C15 UNL     1      -2.805   0.018   1.363  0.00  0.00    +0.179 C 
ATOM     18  C16 UNL     1      -4.046   0.905   1.130  0.00  0.00    +0.177 C 
ATOM     19  C17 UNL     1      -4.801   0.526  -0.157  0.00  0.00    +0.176 C 
ATOM     20  C18 UNL     1      -3.861   0.536  -1.387  0.00  0.00    +0.175 C 
ATOM     21  O6  UNL     1      -2.474   0.493  -1.013  0.00  0.00    -0.361 OA
BRANCH  19  22
ATOM     22  O8  UNL     1      -5.341  -0.798  -0.012  0.00  0.00    -0.386 OA
ATOM     23  H15 UNL     1      -6.057  -0.749   0.647  0.00  0.00    +0.210 HD
ENDBRANCH  19  22
BRANCH  18  24
ATOM     24  O9  UNL     1      -3.660   2.284   1.087  0.00  0.00    -0.386 OA
ATOM     25  H16 UNL     1      -2.885   2.356   0.492  0.00  0.00    +0.210 HD
ENDBRANCH  18  24
BRANCH  17  26
ATOM     26  O10 UNL     1      -3.105  -1.135   2.175  0.00  0.00    -0.386 OA
ATOM     27  H17 UNL     1      -3.400  -0.794   3.040  0.00  0.00    +0.210 HD
ENDBRANCH  17  26
BRANCH  20  28
ATOM     28  C19 UNL     1      -4.061   1.789  -2.250  0.00  0.00    +0.190 C 
BRANCH  28  29
ATOM     29  O7  UNL     1      -5.362   1.830  -2.826  0.00  0.00    -0.392 OA
ATOM     30  H14 UNL     1      -5.413   1.107  -3.476  0.00  0.00    +0.210 HD
ENDBRANCH  28  29
ENDBRANCH  20  28
ENDBRANCH  13  16
BRANCH   6  31
ATOM     31  O1  UNL     1       7.469   1.691  -0.323  0.00  0.00    -0.503 OA
ATOM     32  H3  UNL     1       8.140   1.447   0.341  0.00  0.00    +0.292 HD
ENDBRANCH   6  31
BRANCH   5  33
ATOM     33  O2  UNL     1       7.948  -0.999   0.184  0.00  0.00    -0.503 OA
ATOM     34  H4  UNL     1       8.443  -0.533  -0.515  0.00  0.00    +0.292 HD
ENDBRANCH   5  33
BRANCH  14  35
ATOM     35  O5  UNL     1      -1.207  -2.990   1.004  0.00  0.00    -0.506 OA
ATOM     36  H6  UNL     1      -1.986  -2.555   1.413  0.00  0.00    +0.292 HD
ENDBRANCH  14  35
BRANCH  12  37
ATOM     37  O11 UNL     1      -0.129   1.514  -0.259  0.00  0.00    -0.505 OA
ATOM     38  H18 UNL     1       0.676   2.050  -0.444  0.00  0.00    +0.292 HD
ENDBRANCH  12  37
TORSDOF 10
