REMARK  Name = data/mahkota_dewa_dn/results/docking/ligands/pdb/Matairesinol.pdb
REMARK  10 active torsions:
REMARK  status: ('A' for Active; 'I' for Inactive)
REMARK    1  A    between atoms: C1_1  and  O1_2
REMARK    2  A    between atoms: O1_2  and  C2_3
REMARK    3  A    between atoms: C3_4  and  O6_26
REMARK    4  A    between atoms: C6_7  and  C8_9
REMARK    5  A    between atoms: C8_9  and  C9_10
REMARK    6  A    between atoms: C12_15  and  C13_16
REMARK    7  A    between atoms: C13_16  and  C14_17
REMARK    8  A    between atoms: C16_19  and  O5_24
REMARK    9  A    between atoms: C17_20  and  O4_23
REMARK   10  A    between atoms: O5_24  and  C20_25
REMARK                            x       y       z     vdW  Elec       q    Type
REMARK                         _______ _______ _______ _____ _____    ______ ____
ROOT
ATOM      1  C9  UNL     1      -0.673  -0.142  -0.617  0.00  0.00    +0.045 C 
ATOM      2  C10 UNL     1      -1.068   1.015  -1.514  0.00  0.00    +0.236 C 
ATOM      3  O2  UNL     1      -0.325   2.133  -1.030  0.00  0.00    -0.464 OA
ATOM      4  C11 UNL     1       0.781   1.687  -0.364  0.00  0.00    +0.311 C 
ATOM      5  O3  UNL     1       1.632   2.424   0.104  0.00  0.00    -0.251 OA
ATOM      6  C12 UNL     1       0.798   0.177  -0.329  0.00  0.00    +0.109 C 
ENDROOT
BRANCH   1   7
ATOM      7  C8  UNL     1      -1.488  -0.172   0.696  0.00  0.00    +0.043 C 
BRANCH   7  12
ATOM      8  C2  UNL     1      -5.294  -0.016   0.384  0.00  0.00    +0.162 A 
ATOM      9  C3  UNL     1      -5.582  -1.356   0.092  0.00  0.00    +0.158 A 
ATOM     10  C4  UNL     1      -4.567  -2.308   0.002  0.00  0.00    +0.049 A 
ATOM     11  C5  UNL     1      -3.241  -1.924   0.203  0.00  0.00    +0.007 A 
ATOM     12  C6  UNL     1      -2.926  -0.590   0.491  0.00  0.00    -0.043 A 
ATOM     13  C7  UNL     1      -3.961   0.356   0.585  0.00  0.00    +0.053 A 
BRANCH   8  15
ATOM     14  C1  UNL     1      -6.112   2.191   0.779  0.00  0.00    +0.277 C 
ATOM     15  O1  UNL     1      -6.367   0.834   0.447  0.00  0.00    -0.491 OA
ENDBRANCH   8  15
BRANCH   9  16
ATOM     16  O6  UNL     1      -6.884  -1.732  -0.108  0.00  0.00    -0.503 OA
ATOM     17  H22 UNL     1      -6.919  -2.687  -0.267  0.00  0.00    +0.292 HD
ENDBRANCH   9  16
ENDBRANCH   7  12
ENDBRANCH   1   7
BRANCH   6  18
ATOM     18  C13 UNL     1       1.747  -0.355  -1.413  0.00  0.00    +0.050 C 
BRANCH  18  19
ATOM     19  C14 UNL     1       3.125  -0.657  -0.867  0.00  0.00    -0.043 A 
ATOM     20  C15 UNL     1       4.067   0.372  -0.701  0.00  0.00    +0.053 A 
ATOM     21  C16 UNL     1       5.336   0.107  -0.175  0.00  0.00    +0.162 A 
ATOM     22  C17 UNL     1       5.662  -1.211   0.166  0.00  0.00    +0.158 A 
ATOM     23  C18 UNL     1       4.738  -2.244   0.007  0.00  0.00    +0.049 A 
ATOM     24  C19 UNL     1       3.470  -1.965  -0.503  0.00  0.00    +0.007 A 
BRANCH  22  25
ATOM     25  O4  UNL     1       6.906  -1.485   0.670  0.00  0.00    -0.503 OA
ATOM     26  H18 UNL     1       6.976  -2.436   0.843  0.00  0.00    +0.292 HD
ENDBRANCH  22  25
BRANCH  21  27
ATOM     27  O5  UNL     1       6.311   1.049   0.025  0.00  0.00    -0.491 OA
ATOM     28  C20 UNL     1       5.912   2.412  -0.040  0.00  0.00    +0.277 C 
ENDBRANCH  21  27
ENDBRANCH  18  19
ENDBRANCH   6  18
TORSDOF 8
