REMARK  Name = data/mahkota_dewa_dn/results/docking/ligands/pdb/Myricetin.pdb
REMARK  7 active torsions:
REMARK  status: ('A' for Active; 'I' for Inactive)
REMARK    1  A    between atoms: C2_2  and  C7_10
REMARK    2  A    between atoms: C4_4  and  O3_9
REMARK    3  A    between atoms: C5_5  and  O2_8
REMARK    4  A    between atoms: C6_6  and  O1_7
REMARK    5  A    between atoms: C8_11  and  O8_23
REMARK    6  A    between atoms: C11_15  and  O7_22
REMARK    7  A    between atoms: C13_17  and  O6_21
REMARK                            x       y       z     vdW  Elec       q    Type
REMARK                         _______ _______ _______ _____ _____    ______ ____
ROOT
ATOM      1  C7  UNL     1      -0.309  -0.248   0.150  0.00  0.00    +0.181 A 
ATOM      2  C8  UNL     1      -0.360  -0.944   1.301  0.00  0.00    +0.208 A 
ATOM      3  C9  UNL     1       0.770  -0.822   2.251  0.00  0.00    +0.238 A 
ATOM      4  O4  UNL     1       0.759  -1.440   3.314  0.00  0.00    -0.283 OA
ATOM      5  C10 UNL     1       1.881   0.052   1.874  0.00  0.00    +0.109 A 
ATOM      6  C11 UNL     1       2.994   0.226   2.703  0.00  0.00    +0.135 A 
ATOM      7  C12 UNL     1       4.034   1.066   2.312  0.00  0.00    +0.091 A 
ATOM      8  C13 UNL     1       3.949   1.726   1.089  0.00  0.00    +0.124 A 
ATOM      9  C14 UNL     1       2.845   1.559   0.257  0.00  0.00    +0.092 A 
ATOM     10  C15 UNL     1       1.807   0.717   0.654  0.00  0.00    +0.147 A 
ATOM     11  O5  UNL     1       0.744   0.589  -0.203  0.00  0.00    -0.451 OA
ENDROOT
BRANCH   1  13
ATOM     12  C1  UNL     1      -1.966  -1.485  -1.293  0.00  0.00    +0.061 A 
ATOM     13  C2  UNL     1      -1.387  -0.275  -0.864  0.00  0.00    +0.028 A 
ATOM     14  C3  UNL     1      -1.821   0.932  -1.444  0.00  0.00    +0.061 A 
ATOM     15  C4  UNL     1      -2.817   0.921  -2.413  0.00  0.00    +0.163 A 
ATOM     16  C5  UNL     1      -3.388  -0.275  -2.820  0.00  0.00    +0.201 A 
ATOM     17  C6  UNL     1      -2.966  -1.475  -2.263  0.00  0.00    +0.163 A 
BRANCH  17  18
ATOM     18  O1  UNL     1      -3.562  -2.625  -2.701  0.00  0.00    -0.503 OA
ATOM     19  H3  UNL     1      -3.196  -3.369  -2.190  0.00  0.00    +0.292 HD
ENDBRANCH  17  18
BRANCH  16  20
ATOM     20  O2  UNL     1      -4.368  -0.257  -3.776  0.00  0.00    -0.501 OA
ATOM     21  H4  UNL     1      -4.605  -1.200  -3.891  0.00  0.00    +0.292 HD
ENDBRANCH  16  20
BRANCH  15  22
ATOM     22  O3  UNL     1      -3.232   2.099  -2.963  0.00  0.00    -0.503 OA
ATOM     23  H5  UNL     1      -3.925   1.840  -3.604  0.00  0.00    +0.292 HD
ENDBRANCH  15  22
ENDBRANCH   1  13
BRANCH   8  24
ATOM     24  O6  UNL     1       4.941   2.559   0.662  0.00  0.00    -0.507 OA
ATOM     25  H8  UNL     1       5.641   2.588   1.337  0.00  0.00    +0.292 HD
ENDBRANCH   8  24
BRANCH   6  26
ATOM     26  O7  UNL     1       3.129  -0.398   3.914  0.00  0.00    -0.506 OA
ATOM     27  H9  UNL     1       2.331  -0.950   4.071  0.00  0.00    +0.292 HD
ENDBRANCH   6  26
BRANCH   2  28
ATOM     28  O8  UNL     1      -1.411  -1.762   1.674  0.00  0.00    -0.501 OA
ATOM     29  H10 UNL     1      -1.181  -2.082   2.572  0.00  0.00    +0.292 HD
ENDBRANCH   2  28
TORSDOF 7
