REMARK  Name = data/mahkota_dewa_dn/results/docking/ligands/pdb/Naringin.pdb
REMARK  15 active torsions:
REMARK  status: ('A' for Active; 'I' for Inactive)
REMARK    1  A    between atoms: C1_1  and  C2_2
REMARK    2  A    between atoms: C3_3  and  O14_41
REMARK    3  A    between atoms: C4_4  and  O13_40
REMARK    4  A    between atoms: C5_5  and  O12_39
REMARK    5  A    between atoms: C6_6  and  O2_8
REMARK    6  A    between atoms: O2_8  and  C7_9
REMARK    7  A    between atoms: C8_10  and  O11_38
REMARK    8  A    between atoms: C9_11  and  O10_37
REMARK    9  A    between atoms: C10_12  and  C27_35
REMARK   10  A    between atoms: C11_14  and  O4_15
REMARK   11  A    between atoms: O4_15  and  C12_16
REMARK   12  A    between atoms: C14_18  and  O8_34
REMARK   13  A    between atoms: C18_23  and  C21_27
REMARK   14  A    between atoms: C24_30  and  O7_33
REMARK   15  A    between atoms: C27_35  and  O9_36
REMARK                            x       y       z     vdW  Elec       q    Type
REMARK                         _______ _______ _______ _____ _____    ______ ____
ROOT
ATOM      1  C7  UNL     1      -2.660  -1.620  -0.744  0.00  0.00    +0.221 C 
ATOM      2  C8  UNL     1      -3.117  -2.846  -1.555  0.00  0.00    +0.180 C 
ATOM      3  C9  UNL     1      -3.261  -4.106  -0.677  0.00  0.00    +0.177 C 
ATOM      4  C10 UNL     1      -2.365  -4.011   0.573  0.00  0.00    +0.179 C 
ATOM      5  O3  UNL     1      -1.147  -3.351   0.241  0.00  0.00    -0.331 OA
ATOM      6  C11 UNL     1      -1.339  -1.940   0.021  0.00  0.00    +0.340 C 
ENDROOT
BRANCH   3   7
ATOM      7  O10 UNL     1      -4.624  -4.298  -0.280  0.00  0.00    -0.386 OA
ATOM      8  H28 UNL     1      -4.617  -5.069   0.328  0.00  0.00    +0.210 HD
ENDBRANCH   3   7
BRANCH   2   9
ATOM      9  O11 UNL     1      -2.198  -3.092  -2.632  0.00  0.00    -0.386 OA
ATOM     10  H29 UNL     1      -1.319  -3.270  -2.244  0.00  0.00    +0.210 HD
ENDBRANCH   2   9
BRANCH   1  11
ATOM     11  O2  UNL     1      -3.713  -1.278   0.178  0.00  0.00    -0.337 OA
BRANCH  11  17
ATOM     12  C1  UNL     1      -1.901   2.673  -0.150  0.00  0.00    +0.041 C 
ATOM     13  C2  UNL     1      -2.622   2.089   1.061  0.00  0.00    +0.149 C 
ATOM     14  C3  UNL     1      -4.031   2.692   1.233  0.00  0.00    +0.174 C 
ATOM     15  C4  UNL     1      -4.903   1.733   2.047  0.00  0.00    +0.179 C 
ATOM     16  C5  UNL     1      -4.998   0.360   1.366  0.00  0.00    +0.201 C 
ATOM     17  C6  UNL     1      -3.814   0.131   0.402  0.00  0.00    +0.282 C 
ATOM     18  O1  UNL     1      -2.619   0.654   0.962  0.00  0.00    -0.343 OA
BRANCH  16  19
ATOM     19  O12 UNL     1      -6.248   0.263   0.653  0.00  0.00    -0.384 OA
ATOM     20  H30 UNL     1      -6.273  -0.645   0.287  0.00  0.00    +0.210 HD
ENDBRANCH  16  19
BRANCH  15  21
ATOM     21  O13 UNL     1      -6.203   2.318   2.227  0.00  0.00    -0.386 OA
ATOM     22  H31 UNL     1      -6.802   1.788   1.657  0.00  0.00    +0.210 HD
ENDBRANCH  15  21
BRANCH  14  23
ATOM     23  O14 UNL     1      -3.956   3.961   1.886  0.00  0.00    -0.387 OA
ATOM     24  H32 UNL     1      -4.863   4.133   2.216  0.00  0.00    +0.210 HD
ENDBRANCH  14  23
ENDBRANCH  11  17
ENDBRANCH   1  11
BRANCH   6  25
ATOM     25  O4  UNL     1      -0.261  -1.449  -0.792  0.00  0.00    -0.461 OA
BRANCH  25  26
ATOM     26  C12 UNL     1       0.907  -1.125  -0.162  0.00  0.00    +0.131 A 
ATOM     27  C13 UNL     1       1.311  -1.584   1.093  0.00  0.00    +0.092 A 
ATOM     28  C14 UNL     1       2.542  -1.189   1.616  0.00  0.00    +0.134 A 
ATOM     29  C15 UNL     1       3.376  -0.332   0.891  0.00  0.00    +0.101 A 
ATOM     30  C16 UNL     1       4.705   0.062   1.391  0.00  0.00    +0.174 C 
ATOM     31  O5  UNL     1       5.085  -0.327   2.493  0.00  0.00    -0.292 OA
ATOM     32  C17 UNL     1       5.562   0.881   0.470  0.00  0.00    +0.129 C 
ATOM     33  C18 UNL     1       4.648   1.768  -0.364  0.00  0.00    +0.211 C 
ATOM     34  O6  UNL     1       3.725   0.976  -1.132  0.00  0.00    -0.483 OA
ATOM     35  C19 UNL     1       2.971   0.134  -0.358  0.00  0.00    +0.139 A 
ATOM     36  C20 UNL     1       1.750  -0.279  -0.891  0.00  0.00    +0.092 A 
BRANCH  33  37
ATOM     37  C21 UNL     1       5.463   2.630  -1.311  0.00  0.00    -0.007 A 
ATOM     38  C22 UNL     1       5.926   2.131  -2.541  0.00  0.00    +0.011 A 
ATOM     39  C23 UNL     1       6.696   2.929  -3.391  0.00  0.00    +0.046 A 
ATOM     40  C24 UNL     1       7.011   4.228  -3.010  0.00  0.00    +0.117 A 
ATOM     41  C25 UNL     1       6.571   4.740  -1.797  0.00  0.00    +0.046 A 
ATOM     42  C26 UNL     1       5.800   3.944  -0.947  0.00  0.00    +0.011 A 
BRANCH  40  43
ATOM     43  O7  UNL     1       7.759   5.041  -3.808  0.00  0.00    -0.507 OA
ATOM     44  H23 UNL     1       7.981   4.559  -4.622  0.00  0.00    +0.292 HD
ENDBRANCH  40  43
ENDBRANCH  33  37
BRANCH  28  45
ATOM     45  O8  UNL     1       2.878  -1.690   2.845  0.00  0.00    -0.506 OA
ATOM     46  H24 UNL     1       3.770  -1.349   3.083  0.00  0.00    +0.292 HD
ENDBRANCH  28  45
ENDBRANCH  25  26
ENDBRANCH   6  25
BRANCH   4  47
ATOM     47  C27 UNL     1      -2.053  -5.407   1.123  0.00  0.00    +0.190 C 
BRANCH  47  48
ATOM     48  O9  UNL     1      -3.259  -6.104   1.427  0.00  0.00    -0.392 OA
ATOM     49  H27 UNL     1      -2.995  -6.950   1.835  0.00  0.00    +0.210 HD
ENDBRANCH  47  48
ENDBRANCH   4  47
TORSDOF 14
