REMARK  Name = data/mahkota_dewa_dn/results/docking/ligands/pdb/Phalerin.pdb
REMARK  3 active torsions:
REMARK  status: ('A' for Active; 'I' for Inactive)
REMARK    1  A    between atoms: C1_1  and  O1_2
REMARK    2  A    between atoms: O1_2  and  C2_3
REMARK    3  A    between atoms: C9_13  and  C12_17
REMARK                            x       y       z     vdW  Elec       q    Type
REMARK                         _______ _______ _______ _____ _____    ______ ____
ROOT
ATOM      1  C2  UNL     1      -2.622   0.373  -0.550  0.00  0.00    +0.180 A 
ATOM      2  C3  UNL     1      -1.229   0.436  -0.393  0.00  0.00    +0.109 A 
ATOM      3  C4  UNL     1      -0.520  -0.707   0.025  0.00  0.00    +0.146 A 
ATOM      4  C5  UNL     1      -1.181  -1.910   0.292  0.00  0.00    +0.096 A 
ATOM      5  C6  UNL     1      -2.547  -1.940   0.122  0.00  0.00    +0.173 A 
ATOM      6  C7  UNL     1      -3.252  -0.834  -0.293  0.00  0.00    +0.208 A 
ATOM      7  O2  UNL     1      -4.584  -1.094  -0.409  0.00  0.00    -0.449 OA
ATOM      8  C8  UNL     1      -4.633  -2.485  -0.038  0.00  0.00    +0.467 C 
ATOM      9  O3  UNL     1      -3.344  -3.024   0.322  0.00  0.00    -0.452 OA
ATOM     10  O4  UNL     1       0.843  -0.726   0.192  0.00  0.00    -0.454 OA
ATOM     11  C9  UNL     1       1.564   0.414  -0.114  0.00  0.00    +0.139 A 
ATOM     12  C10 UNL     1       1.010   1.571  -0.498  0.00  0.00    +0.098 A 
ATOM     13  C11 UNL     1      -0.454   1.672  -0.632  0.00  0.00    +0.197 A 
ATOM     14  O5  UNL     1      -0.954   2.754  -0.906  0.00  0.00    -0.287 OA
ENDROOT
BRANCH  11  15
ATOM     15  C12 UNL     1       3.023   0.271   0.054  0.00  0.00    +0.017 A 
ATOM     16  C13 UNL     1       3.538  -0.418   1.162  0.00  0.00    +0.011 A 
ATOM     17  C14 UNL     1       4.917  -0.571   1.332  0.00  0.00    +0.001 A 
ATOM     18  C15 UNL     1       5.798  -0.043   0.392  0.00  0.00    +0.000 A 
ATOM     19  C16 UNL     1       5.303   0.636  -0.719  0.00  0.00    +0.001 A 
ATOM     20  C17 UNL     1       3.924   0.789  -0.889  0.00  0.00    +0.011 A 
ENDBRANCH  11  15
BRANCH   1  22
ATOM     21  C1  UNL     1      -3.979   2.134   0.030  0.00  0.00    +0.277 C 
ATOM     22  O1  UNL     1      -3.349   1.423  -1.034  0.00  0.00    -0.491 OA
ENDBRANCH   1  22
TORSDOF 2
