REMARK  Name = data/mahkota_dewa_dn/results/docking/ligands/pdb/Quercetin.pdb
REMARK  6 active torsions:
REMARK  status: ('A' for Active; 'I' for Inactive)
REMARK    1  A    between atoms: C3_3  and  O7_22
REMARK    2  A    between atoms: C4_4  and  O6_21
REMARK    3  A    between atoms: C6_6  and  C7_7
REMARK    4  A    between atoms: C8_8  and  O5_20
REMARK    5  A    between atoms: C11_12  and  O4_19
REMARK    6  A    between atoms: C13_14  and  O3_18
REMARK                            x       y       z     vdW  Elec       q    Type
REMARK                         _______ _______ _______ _____ _____    ______ ____
ROOT
ATOM      1  C7  UNL     1       0.348   0.370   0.048  0.00  0.00    +0.181 A 
ATOM      2  C8  UNL     1      -0.142   1.439   0.703  0.00  0.00    +0.208 A 
ATOM      3  C9  UNL     1      -1.600   1.509   0.949  0.00  0.00    +0.238 A 
ATOM      4  O1  UNL     1      -2.088   2.470   1.542  0.00  0.00    -0.283 OA
ATOM      5  C10 UNL     1      -2.424   0.401   0.464  0.00  0.00    +0.109 A 
ATOM      6  C11 UNL     1      -3.809   0.375   0.654  0.00  0.00    +0.135 A 
ATOM      7  C12 UNL     1      -4.562  -0.696   0.178  0.00  0.00    +0.091 A 
ATOM      8  C13 UNL     1      -3.917  -1.735  -0.487  0.00  0.00    +0.124 A 
ATOM      9  C14 UNL     1      -2.538  -1.718  -0.682  0.00  0.00    +0.092 A 
ATOM     10  C15 UNL     1      -1.790  -0.643  -0.202  0.00  0.00    +0.147 A 
ATOM     11  O2  UNL     1      -0.437  -0.677  -0.422  0.00  0.00    -0.451 OA
ENDROOT
BRANCH   1  17
ATOM     12  C1  UNL     1       2.782   0.395   0.703  0.00  0.00    +0.015 A 
ATOM     13  C2  UNL     1       4.135   0.211   0.397  0.00  0.00    +0.050 A 
ATOM     14  C3  UNL     1       4.490  -0.178  -0.887  0.00  0.00    +0.158 A 
ATOM     15  C4  UNL     1       3.511  -0.385  -1.853  0.00  0.00    +0.159 A 
ATOM     16  C5  UNL     1       2.166  -0.203  -1.557  0.00  0.00    +0.060 A 
ATOM     17  C6  UNL     1       1.782   0.200  -0.268  0.00  0.00    +0.025 A 
BRANCH  15  18
ATOM     18  O6  UNL     1       3.868  -0.772  -3.113  0.00  0.00    -0.503 OA
ATOM     19  H9  UNL     1       4.844  -0.832  -3.083  0.00  0.00    +0.292 HD
ENDBRANCH  15  18
BRANCH  14  20
ATOM     20  O7  UNL     1       5.794  -0.374  -1.250  0.00  0.00    -0.503 OA
ATOM     21  H10 UNL     1       6.354  -0.182  -0.478  0.00  0.00    +0.292 HD
ENDBRANCH  14  20
ENDBRANCH   1  17
BRANCH   8  22
ATOM     22  O3  UNL     1      -4.610  -2.805  -0.971  0.00  0.00    -0.507 OA
ATOM     23  H6  UNL     1      -5.554  -2.685  -0.773  0.00  0.00    +0.292 HD
ENDBRANCH   8  22
BRANCH   6  24
ATOM     24  O4  UNL     1      -4.493   1.369   1.299  0.00  0.00    -0.506 OA
ATOM     25  H7  UNL     1      -3.851   2.060   1.577  0.00  0.00    +0.292 HD
ENDBRANCH   6  24
BRANCH   2  26
ATOM     26  O5  UNL     1       0.624   2.499   1.152  0.00  0.00    -0.501 OA
ATOM     27  H8  UNL     1      -0.013   3.130   1.548  0.00  0.00    +0.292 HD
ENDBRANCH   2  26
TORSDOF 6
