REMARK  Name = data/mahkota_dewa_dn/results/docking/ligands/pdb/Rutin.pdb
REMARK  17 active torsions:
REMARK  status: ('A' for Active; 'I' for Inactive)
REMARK    1  A    between atoms: C1_1  and  C2_2
REMARK    2  A    between atoms: C3_3  and  O16_43
REMARK    3  A    between atoms: C4_4  and  O15_42
REMARK    4  A    between atoms: C5_5  and  O14_41
REMARK    5  A    between atoms: C6_6  and  O2_8
REMARK    6  A    between atoms: O2_8  and  C7_9
REMARK    7  A    between atoms: C7_9  and  C8_10
REMARK    8  A    between atoms: C9_11  and  O13_40
REMARK    9  A    between atoms: C10_12  and  O12_39
REMARK   10  A    between atoms: C11_13  and  O11_38
REMARK   11  A    between atoms: C12_14  and  O4_16
REMARK   12  A    between atoms: O4_16  and  C13_17
REMARK   13  A    between atoms: C14_18  and  C22_30
REMARK   14  A    between atoms: C17_22  and  O8_29
REMARK   15  A    between atoms: C19_24  and  O7_28
REMARK   16  A    between atoms: C24_32  and  O10_37
REMARK   17  A    between atoms: C25_33  and  O9_36
REMARK                            x       y       z     vdW  Elec       q    Type
REMARK                         _______ _______ _______ _____ _____    ______ ____
ROOT
ATOM      1  C8  UNL     1       0.824   1.863   0.243  0.00  0.00    +0.179 C 
ATOM      2  C9  UNL     1       1.589   1.119   1.349  0.00  0.00    +0.177 C 
ATOM      3  C10 UNL     1       1.345   1.818   2.691  0.00  0.00    +0.180 C 
ATOM      4  C11 UNL     1      -0.102   2.295   2.870  0.00  0.00    +0.214 C 
ATOM      5  C12 UNL     1      -1.044   1.713   1.795  0.00  0.00    +0.340 C 
ATOM      6  O3  UNL     1      -0.592   1.909   0.448  0.00  0.00    -0.331 OA
ENDROOT
BRANCH   2   7
ATOM      7  O13 UNL     1       3.010   1.080   1.145  0.00  0.00    -0.386 OA
ATOM      8  H27 UNL     1       3.161   1.110   0.178  0.00  0.00    +0.210 HD
ENDBRANCH   2   7
BRANCH   3   9
ATOM      9  O12 UNL     1       1.718   0.917   3.748  0.00  0.00    -0.386 OA
ATOM     10  H26 UNL     1       2.632   0.644   3.536  0.00  0.00    +0.210 HD
ENDBRANCH   3   9
BRANCH   4  11
ATOM     11  O11 UNL     1      -0.117   3.735   2.795  0.00  0.00    -0.383 OA
ATOM     12  H25 UNL     1      -0.959   4.029   3.187  0.00  0.00    +0.210 HD
ENDBRANCH   4  11
BRANCH   5  13
ATOM     13  O4  UNL     1      -1.235   0.313   2.036  0.00  0.00    -0.453 OA
BRANCH  13  14
ATOM     14  C13 UNL     1      -2.561  -0.071   1.937  0.00  0.00    +0.214 A 
ATOM     15  C14 UNL     1      -2.990  -0.971   1.032  0.00  0.00    +0.181 A 
ATOM     16  O5  UNL     1      -4.302  -1.388   0.891  0.00  0.00    -0.451 OA
ATOM     17  C15 UNL     1      -5.239  -0.916   1.773  0.00  0.00    +0.147 A 
ATOM     18  C16 UNL     1      -6.543  -1.386   1.623  0.00  0.00    +0.092 A 
ATOM     19  C17 UNL     1      -7.537  -0.941   2.490  0.00  0.00    +0.124 A 
ATOM     20  C18 UNL     1      -7.250  -0.033   3.505  0.00  0.00    +0.091 A 
ATOM     21  C19 UNL     1      -5.945   0.433   3.649  0.00  0.00    +0.135 A 
ATOM     22  C20 UNL     1      -4.937  -0.007   2.783  0.00  0.00    +0.109 A 
ATOM     23  C21 UNL     1      -3.555   0.472   2.901  0.00  0.00    +0.238 A 
ATOM     24  O6  UNL     1      -3.256   1.298   3.761  0.00  0.00    -0.283 OA
BRANCH  15  25
ATOM     25  C22 UNL     1      -2.083  -1.589   0.050  0.00  0.00    +0.025 A 
ATOM     26  C23 UNL     1      -2.301  -1.387  -1.322  0.00  0.00    +0.060 A 
ATOM     27  C24 UNL     1      -1.455  -1.991  -2.246  0.00  0.00    +0.159 A 
ATOM     28  C25 UNL     1      -0.404  -2.798  -1.818  0.00  0.00    +0.158 A 
ATOM     29  C26 UNL     1      -0.176  -3.009  -0.467  0.00  0.00    +0.050 A 
ATOM     30  C27 UNL     1      -1.016  -2.402   0.469  0.00  0.00    +0.015 A 
BRANCH  27  31
ATOM     31  O10 UNL     1      -1.617  -1.821  -3.594  0.00  0.00    -0.503 OA
ATOM     32  H24 UNL     1      -2.401  -1.266  -3.741  0.00  0.00    +0.292 HD
ENDBRANCH  27  31
BRANCH  28  33
ATOM     33  O9  UNL     1       0.415  -3.395  -2.731  0.00  0.00    -0.503 OA
ATOM     34  H23 UNL     1       0.110  -3.056  -3.596  0.00  0.00    +0.292 HD
ENDBRANCH  28  33
ENDBRANCH  15  25
BRANCH  19  35
ATOM     35  O8  UNL     1      -8.798  -1.426   2.308  0.00  0.00    -0.507 OA
ATOM     36  H19 UNL     1      -9.383  -1.048   2.987  0.00  0.00    +0.292 HD
ENDBRANCH  19  35
BRANCH  21  37
ATOM     37  O7  UNL     1      -5.722   1.325   4.664  0.00  0.00    -0.506 OA
ATOM     38  H18 UNL     1      -4.767   1.560   4.666  0.00  0.00    +0.292 HD
ENDBRANCH  21  37
ENDBRANCH  13  14
ENDBRANCH   5  13
BRANCH   1  39
ATOM     39  C7  UNL     1       1.073   1.238  -1.140  0.00  0.00    +0.197 C 
BRANCH  39  40
ATOM     40  O2  UNL     1       2.453   1.371  -1.502  0.00  0.00    -0.346 OA
BRANCH  40  46
ATOM     41  C1  UNL     1       3.818  -2.631  -2.003  0.00  0.00    +0.041 C 
ATOM     42  C2  UNL     1       3.908  -1.109  -2.003  0.00  0.00    +0.149 C 
ATOM     43  C3  UNL     1       5.224  -0.621  -2.627  0.00  0.00    +0.174 C 
ATOM     44  C4  UNL     1       5.225   0.910  -2.663  0.00  0.00    +0.179 C 
ATOM     45  C5  UNL     1       3.989   1.440  -3.386  0.00  0.00    +0.201 C 
ATOM     46  C6  UNL     1       2.707   0.815  -2.799  0.00  0.00    +0.282 C 
ATOM     47  O1  UNL     1       2.780  -0.612  -2.729  0.00  0.00    -0.343 OA
BRANCH  43  48
ATOM     48  O16 UNL     1       6.375  -1.037  -1.881  0.00  0.00    -0.387 OA
ATOM     49  H30 UNL     1       6.471  -1.998  -2.007  0.00  0.00    +0.210 HD
ENDBRANCH  43  48
BRANCH  44  50
ATOM     50  O15 UNL     1       6.404   1.366  -3.352  0.00  0.00    -0.386 OA
ATOM     51  H29 UNL     1       7.142   0.892  -2.916  0.00  0.00    +0.210 HD
ENDBRANCH  44  50
BRANCH  45  52
ATOM     52  O14 UNL     1       4.111   1.146  -4.789  0.00  0.00    -0.384 OA
ATOM     53  H28 UNL     1       5.034   1.387  -5.011  0.00  0.00    +0.210 HD
ENDBRANCH  45  52
ENDBRANCH  40  46
ENDBRANCH  39  40
ENDBRANCH   1  39
TORSDOF 16
