REMARK  Name = data/mahkota_dewa_dn/results/docking/ligands/pdb/Vitexin.pdb
REMARK  10 active torsions:
REMARK  status: ('A' for Active; 'I' for Inactive)
REMARK    1  A    between atoms: C3_3  and  O10_31
REMARK    2  A    between atoms: C6_6  and  C7_7
REMARK    3  A    between atoms: C12_14  and  C16_20
REMARK    4  A    between atoms: C13_15  and  O4_19
REMARK    5  A    between atoms: C15_17  and  O3_18
REMARK    6  A    between atoms: C17_21  and  O9_30
REMARK    7  A    between atoms: C18_22  and  O8_29
REMARK    8  A    between atoms: C19_23  and  O7_28
REMARK    9  A    between atoms: C20_24  and  C21_26
REMARK   10  A    between atoms: C21_26  and  O6_27
REMARK                            x       y       z     vdW  Elec       q    Type
REMARK                         _______ _______ _______ _____ _____    ______ ____
ROOT
ATOM      1  C7  UNL     1       1.950   0.457  -1.302  0.00  0.00    +0.139 A 
ATOM      2  C8  UNL     1       2.645   1.402  -1.947  0.00  0.00    +0.098 A 
ATOM      3  C9  UNL     1       2.131   2.776  -1.929  0.00  0.00    +0.197 A 
ATOM      4  O1  UNL     1       2.718   3.685  -2.506  0.00  0.00    -0.287 OA
ATOM      5  C10 UNL     1       0.880   3.020  -1.197  0.00  0.00    +0.106 A 
ATOM      6  C11 UNL     1       0.267   1.950  -0.536  0.00  0.00    +0.152 A 
ATOM      7  O2  UNL     1       0.778   0.674  -0.605  0.00  0.00    -0.454 OA
ATOM      8  C12 UNL     1      -0.919   2.149   0.199  0.00  0.00    +0.068 A 
ATOM      9  C13 UNL     1      -1.499   3.430   0.174  0.00  0.00    +0.130 A 
ATOM     10  C14 UNL     1      -0.894   4.498  -0.489  0.00  0.00    +0.092 A 
ATOM     11  C15 UNL     1       0.303   4.292  -1.163  0.00  0.00    +0.135 A 
ENDROOT
BRANCH   1  17
ATOM     12  C1  UNL     1       3.597  -1.322  -0.700  0.00  0.00    +0.015 A 
ATOM     13  C2  UNL     1       3.989  -2.663  -0.679  0.00  0.00    +0.046 A 
ATOM     14  C3  UNL     1       3.171  -3.624  -1.265  0.00  0.00    +0.117 A 
ATOM     15  C4  UNL     1       1.974  -3.266  -1.874  0.00  0.00    +0.046 A 
ATOM     16  C5  UNL     1       1.583  -1.926  -1.895  0.00  0.00    +0.015 A 
ATOM     17  C6  UNL     1       2.391  -0.943  -1.306  0.00  0.00    +0.018 A 
BRANCH  14  18
ATOM     18  O10 UNL     1       3.508  -4.944  -1.259  0.00  0.00    -0.507 OA
ATOM     19  H20 UNL     1       4.374  -5.044  -0.832  0.00  0.00    +0.292 HD
ENDBRANCH  14  18
ENDBRANCH   1  17
BRANCH   8  20
ATOM     20  C16 UNL     1      -1.597   1.028   0.978  0.00  0.00    +0.187 C 
ATOM     21  C17 UNL     1      -2.401   0.109   0.044  0.00  0.00    +0.179 C 
ATOM     22  C18 UNL     1      -3.160  -0.940   0.870  0.00  0.00    +0.177 C 
ATOM     23  C19 UNL     1      -2.449  -1.320   2.177  0.00  0.00    +0.176 C 
ATOM     24  C20 UNL     1      -0.941  -1.006   2.162  0.00  0.00    +0.175 C 
ATOM     25  O5  UNL     1      -0.600   0.321   1.726  0.00  0.00    -0.361 OA
BRANCH  23  26
ATOM     26  O7  UNL     1      -3.052  -0.556   3.242  0.00  0.00    -0.386 OA
ATOM     27  H17 UNL     1      -3.885  -1.006   3.471  0.00  0.00    +0.210 HD
ENDBRANCH  23  26
BRANCH  22  28
ATOM     28  O8  UNL     1      -3.382  -2.100   0.056  0.00  0.00    -0.386 OA
ATOM     29  H18 UNL     1      -3.812  -1.773  -0.759  0.00  0.00    +0.210 HD
ENDBRANCH  22  28
BRANCH  21  30
ATOM     30  O9  UNL     1      -3.366   0.798  -0.772  0.00  0.00    -0.386 OA
ATOM     31  H19 UNL     1      -3.561   1.654  -0.341  0.00  0.00    +0.210 HD
ENDBRANCH  21  30
BRANCH  24  32
ATOM     32  C21 UNL     1      -0.134  -2.021   1.341  0.00  0.00    +0.190 C 
BRANCH  32  33
ATOM     33  O6  UNL     1      -0.264  -3.336   1.868  0.00  0.00    -0.392 OA
ATOM     34  H16 UNL     1       0.272  -3.916   1.297  0.00  0.00    +0.210 HD
ENDBRANCH  32  33
ENDBRANCH  24  32
ENDBRANCH   8  20
BRANCH  11  35
ATOM     35  O3  UNL     1       0.849   5.380  -1.789  0.00  0.00    -0.506 OA
ATOM     36  H7  UNL     1       1.685   5.097  -2.225  0.00  0.00    +0.292 HD
ENDBRANCH  11  35
BRANCH   9  37
ATOM     37  O4  UNL     1      -2.711   3.617   0.782  0.00  0.00    -0.506 OA
ATOM     38  H8  UNL     1      -2.904   4.571   0.807  0.00  0.00    +0.292 HD
ENDBRANCH   9  37
TORSDOF 10
